$DATA1 SOURCE='HSPICE' VERSION='K-2015.06-2 linux64'
.TITLE '.temp 25'
 pow              current          s_0_0            s_0_1           
 s_0_2            s_0_3            s_0_4            s_0_5           
 s_0_6            s_0_7            s_1_0            s_1_1           
 s_1_2            s_1_3            s_1_4            s_1_5           
 s_1_6            s_1_7            s_2_0            s_2_1           
 s_2_2            s_2_3            s_2_4            s_2_5           
 s_2_6            s_2_7            s_3_0            s_3_1           
 s_3_2            s_3_3            s_3_4            s_3_5           
 s_3_6            s_3_7            s_4_0            s_4_1           
 s_4_2            s_4_3            s_4_4            s_4_5           
 s_4_6            s_4_7            s_5_0            s_5_1           
 s_5_2            s_5_3            s_5_4            s_5_5           
 s_5_6            s_5_7            temper           alter#          
  5.7282e-04      -4.8270e-13      -1.9424e-02         1.06352      
    1.06007          1.06179          1.05945          1.05896      
    1.06006          1.06007          1.06569          1.06637      
    1.06252       -1.0861e-02      -4.7740e-03         1.05784      
    1.05855          1.05854       -1.9157e-02      -7.8612e-03     
 -8.2608e-03         1.06073          1.05771       -7.4824e-03     
  9.5394e-02         1.05861          1.06529       -1.3360e-02     
 -1.3448e-02      -1.0701e-02      -1.0109e-02      -9.1019e-03     
 -4.3950e-03         1.05563       -1.9570e-02         1.06352      
    1.06000          1.06193          1.05938          1.05908      
    1.05884       -9.4529e-03         1.06570          1.06638      
    1.06277       -1.0301e-02      -4.2102e-03         1.05835      
    1.05927       -5.4790e-03        25.00000       1               
