Using: /usr/local/synopsys/hspice_2015.06/hspice/linux64/hspice  -i 'bit8_tb.sp'
 ****** HSPICE -- K-2015.06-2 linux64 (Jun 25 2015) ******                      
  Copyright (c) 1986 - 2016 by Synopsys, Inc. All Rights Reserved.              
  This software and the associated documentation are proprietary
  to Synopsys, Inc. This software may only be used in accordance
  with the terms and conditions of a written license agreement with
  Synopsys, Inc. All other use, reproduction, or distribution of
  this software is strictly prohibited.
  Input File: bit8_tb.sp                                                        
  Command line options: /usr/local/synopsys/hspice_2015.06/hspice/linux64/hspice -i bit8_tb.sp
 lic:  
 lic: FLEXlm: v11.2.1 
 lic: USER:   aparame2             HOSTNAME: eecad16.eas.asu.edu 
 lic: HOSTID: 989096d63c5d         PID:      26938 
 lic: Using FLEXlm license file: 
 lic: 27020@enlicense9.eas.asu.edu 
 lic: Checkout 1 hspice 
 lic: License/Maintenance for hspice will expire on 18-jul-2017/2016.06 
 lic: 7(in_use)/150(total) FLOATING license(s) on SERVER 27020@enlicense9.eas.asu.edu 
 lic:   
 Init: read install configuration file: /usr/local/synopsys/hspice_2015.06/hspice/meta.cfg
  **warning** (./bit8.spf:22) Global net name, "gnd", in subckt pin list. The pin will be connected to the local net. Recommend to not use global net names in subckt pin lists.
1****** HSPICE -- K-2015.06-2 linux64 (Jun 25 2015) ******                      
 ******  
 .temp 25

 ****** circuit name directory
 circuit number to circuit name directory
   number circuitname                     definition         multiplier
        0 main circuit
        1 x2.                             bit8final          1.00 
        2 xinv0.                          invx04             1.00 
        3 xinv1.                          invx04             1.00 
        4 xinv2.                          invx04             1.00 
        5 xinv3.                          invx04             1.00 
        6 xinv4.                          invx04             1.00 
        7 xinv5.                          invx04             1.00 
        8 xinv6.                          invx04             1.00 
        9 xinv7.                          invx04             1.00 
       10 x2.xmxi2|mm0.                   n105               1.00 
       11 x2.xmxi2|mm1.                   p105               1.00 
       12 x2.xmxi2|mm2.                   n105               1.00 
       13 x2.xmxi2|mm3.                   p105               1.00 
       14 x2.xmxi2|mm4.                   n105               1.00 
       15 x2.xmxi2|mm5.                   p105               1.00 
       16 x2.xmxi2|mm6.                   n105               1.00 
       17 x2.xmxi2|mm7.                   p105               1.00 
       18 x2.xmxi3|xi7|mm0.               n105               1.00 
       19 x2.xmxi3|xi7|mm1.               p105               1.00 
       20 x2.xmxi3|xi7|mm2.               n105               1.00 
       21 x2.xmxi3|xi7|mm3.               p105               1.00 
       22 x2.xmxi3|xi7|mm4.               n105               1.00 
       23 x2.xmxi3|xi7|mm5.               p105               1.00 
       24 x2.xmxi3|xi7|mm6.               n105               1.00 
       25 x2.xmxi3|xi7|mm7.               p105               1.00 
       26 x2.xmxi3|xi8|mm1.               p105               1.00 
       27 x2.xmxi3|xi8|mm2.               p105               1.00 
       28 x2.xmxi3|xi8|mm3.               n105               1.00 
       29 x2.xmxi3|xi8|mm4.               n105               1.00 
       30 x2.xmxi3|xi8|mm5.               n105               1.00 
       31 x2.xmxi3|xi8|mm6.               p105               1.00 
       32 x2.xmxi3|xi8|mm9.               p105               1.00 
       33 x2.xmxi3|xi8|mm10.              n105               1.00 
       34 x2.xmxi3|xi8|mm12.              n105               1.00 
       35 x2.xmxi3|xi8|mm13.              p105               1.00 
       36 x2.xmxi3|xi8|mm14.              p105               1.00 
       37 x2.xmxi3|xi8|mm15.              p105               1.00 
       38 x2.xmxi3|xi8|mm16.              n105               1.00 
       39 x2.xmxi3|xi8|mm17.              n105               1.00 
       40 x2.xmxi3|xi8|mm18.              n105               1.00 
       41 x2.xmxi3|xi8|mm19.              n105               1.00 
       42 x2.xmxi3|xi8|mm20.              n105               1.00 
       43 x2.xmxi3|xi8|mm21.              p105               1.00 
       44 x2.xmxi3|xi8|mm22.              p105               1.00 
       45 x2.xmxi3|xi8|mm23.              p105               1.00 
       46 x2.xmxi3|xi8|mm24.              n105               1.00 
       47 x2.xmxi3|xi8|mm25.              p105               1.00 
       48 x2.xmxi3|xi8|mm28.              n105               1.00 
       49 x2.xmxi3|xi8|mm29.              n105               1.00 
       50 x2.xmxi3|xi8|mm30.              p105               1.00 
       51 x2.xmxi3|xi8|mm31.              p105               1.00 
       52 x2.xmxi3|xi8|mm32.              p105               1.00 
       53 x2.xmxi3|xi8|mm33.              n105               1.00 
       54 x2.xmxi3|xi9|mm0.               n105               1.00 
       55 x2.xmxi3|xi9|mm1.               p105               1.00 
       56 x2.xmxi3|xi9|mm2.               n105               1.00 
       57 x2.xmxi3|xi9|mm3.               p105               1.00 
       58 x2.xmxi3|xi9|mm4.               n105               1.00 
       59 x2.xmxi3|xi9|mm5.               p105               1.00 
       60 x2.xmxi3|xi9|mm6.               n105               1.00 
       61 x2.xmxi3|xi9|mm7.               p105               1.00 
       62 x2.xmxi3|xi10|mm0.              n105               1.00 
       63 x2.xmxi3|xi10|mm1.              p105               1.00 
       64 x2.xmxi3|xi10|mm2.              n105               1.00 
       65 x2.xmxi3|xi10|mm3.              p105               1.00 
       66 x2.xmxi3|xi10|mm4.              n105               1.00 
       67 x2.xmxi3|xi10|mm5.              p105               1.00 
       68 x2.xmxi3|xi10|mm6.              n105               1.00 
       69 x2.xmxi3|xi10|mm7.              p105               1.00 
       70 x2.xmxi3|xi11|mm0.              n105               1.00 
       71 x2.xmxi3|xi11|mm1.              p105               1.00 
       72 x2.xmxi3|xi11|mm2.              n105               1.00 
       73 x2.xmxi3|xi11|mm3.              p105               1.00 
       74 x2.xmxi3|xi11|mm4.              n105               1.00 
       75 x2.xmxi3|xi11|mm5.              p105               1.00 
       76 x2.xmxi3|xi11|mm6.              n105               1.00 
       77 x2.xmxi3|xi11|mm7.              p105               1.00 
       78 x2.xmxi3|xi12|mm0.              n105               1.00 
       79 x2.xmxi3|xi12|mm1.              p105               1.00 
       80 x2.xmxi3|xi12|mm2.              n105               1.00 
       81 x2.xmxi3|xi12|mm3.              p105               1.00 
       82 x2.xmxi3|xi12|mm4.              n105               1.00 
       83 x2.xmxi3|xi12|mm5.              p105               1.00 
       84 x2.xmxi3|xi12|mm6.              n105               1.00 
       85 x2.xmxi3|xi12|mm7.              p105               1.00 
       86 x2.xmxi3|xi13|mm1.              p105               1.00 
       87 x2.xmxi3|xi13|mm2.              p105               1.00 
       88 x2.xmxi3|xi13|mm3.              n105               1.00 
       89 x2.xmxi3|xi13|mm4.              n105               1.00 
       90 x2.xmxi3|xi13|mm5.              n105               1.00 
       91 x2.xmxi3|xi13|mm6.              p105               1.00 
       92 x2.xmxi3|xi13|mm9.              p105               1.00 
       93 x2.xmxi3|xi13|mm10.             n105               1.00 
       94 x2.xmxi3|xi13|mm12.             n105               1.00 
       95 x2.xmxi3|xi13|mm13.             p105               1.00 
       96 x2.xmxi3|xi13|mm14.             p105               1.00 
       97 x2.xmxi3|xi13|mm15.             p105               1.00 
       98 x2.xmxi3|xi13|mm16.             n105               1.00 
       99 x2.xmxi3|xi13|mm17.             n105               1.00 
      100 x2.xmxi3|xi13|mm18.             n105               1.00 
      101 x2.xmxi3|xi13|mm19.             n105               1.00 
      102 x2.xmxi3|xi13|mm20.             n105               1.00 
      103 x2.xmxi3|xi13|mm21.             p105               1.00 
      104 x2.xmxi3|xi13|mm22.             p105               1.00 
      105 x2.xmxi3|xi13|mm23.             p105               1.00 
      106 x2.xmxi3|xi13|mm24.             n105               1.00 
      107 x2.xmxi3|xi13|mm25.             p105               1.00 
      108 x2.xmxi3|xi13|mm28.             n105               1.00 
      109 x2.xmxi3|xi13|mm29.             n105               1.00 
      110 x2.xmxi3|xi13|mm30.             p105               1.00 
      111 x2.xmxi3|xi13|mm31.             p105               1.00 
      112 x2.xmxi3|xi13|mm32.             p105               1.00 
      113 x2.xmxi3|xi13|mm33.             n105               1.00 
      114 x2.xmxi3|xi14|mm0.              n105               1.00 
      115 x2.xmxi3|xi14|mm1.              p105               1.00 
      116 x2.xmxi3|xi14|mm2.              n105               1.00 
      117 x2.xmxi3|xi14|mm3.              p105               1.00 
      118 x2.xmxi3|xi14|mm4.              n105               1.00 
      119 x2.xmxi3|xi14|mm5.              p105               1.00 
      120 x2.xmxi3|xi14|mm6.              n105               1.00 
      121 x2.xmxi3|xi14|mm7.              p105               1.00 
      122 x2.xmxi3|xi15|mm0.              n105               1.00 
      123 x2.xmxi3|xi15|mm1.              p105               1.00 
      124 x2.xmxi3|xi15|mm2.              n105               1.00 
      125 x2.xmxi3|xi15|mm3.              p105               1.00 
      126 x2.xmxi3|xi15|mm4.              n105               1.00 
      127 x2.xmxi3|xi15|mm5.              p105               1.00 
      128 x2.xmxi3|xi15|mm6.              n105               1.00 
      129 x2.xmxi3|xi15|mm7.              p105               1.00 
      130 x2.xmxi3|xi16|mm1.              p105               1.00 
      131 x2.xmxi3|xi16|mm2.              p105               1.00 
      132 x2.xmxi3|xi16|mm3.              n105               1.00 
      133 x2.xmxi3|xi16|mm4.              n105               1.00 
      134 x2.xmxi3|xi16|mm5.              n105               1.00 
      135 x2.xmxi3|xi16|mm6.              p105               1.00 
      136 x2.xmxi3|xi16|mm9.              p105               1.00 
      137 x2.xmxi3|xi16|mm10.             n105               1.00 
      138 x2.xmxi3|xi16|mm12.             n105               1.00 
      139 x2.xmxi3|xi16|mm13.             p105               1.00 
      140 x2.xmxi3|xi16|mm14.             p105               1.00 
      141 x2.xmxi3|xi16|mm15.             p105               1.00 
      142 x2.xmxi3|xi16|mm16.             n105               1.00 
      143 x2.xmxi3|xi16|mm17.             n105               1.00 
      144 x2.xmxi3|xi16|mm18.             n105               1.00 
      145 x2.xmxi3|xi16|mm19.             n105               1.00 
      146 x2.xmxi3|xi16|mm20.             n105               1.00 
      147 x2.xmxi3|xi16|mm21.             p105               1.00 
      148 x2.xmxi3|xi16|mm22.             p105               1.00 
      149 x2.xmxi3|xi16|mm23.             p105               1.00 
      150 x2.xmxi3|xi16|mm24.             n105               1.00 
      151 x2.xmxi3|xi16|mm25.             p105               1.00 
      152 x2.xmxi3|xi16|mm28.             n105               1.00 
      153 x2.xmxi3|xi16|mm29.             n105               1.00 
      154 x2.xmxi3|xi16|mm30.             p105               1.00 
      155 x2.xmxi3|xi16|mm31.             p105               1.00 
      156 x2.xmxi3|xi16|mm32.             p105               1.00 
      157 x2.xmxi3|xi16|mm33.             n105               1.00 
      158 x2.xmxi3|xi17|mm1.              p105               1.00 
      159 x2.xmxi3|xi17|mm2.              p105               1.00 
      160 x2.xmxi3|xi17|mm3.              n105               1.00 
      161 x2.xmxi3|xi17|mm4.              n105               1.00 
      162 x2.xmxi3|xi17|mm5.              n105               1.00 
      163 x2.xmxi3|xi17|mm6.              p105               1.00 
      164 x2.xmxi3|xi17|mm9.              p105               1.00 
      165 x2.xmxi3|xi17|mm10.             n105               1.00 
      166 x2.xmxi3|xi17|mm12.             n105               1.00 
      167 x2.xmxi3|xi17|mm13.             p105               1.00 
      168 x2.xmxi3|xi17|mm14.             p105               1.00 
      169 x2.xmxi3|xi17|mm15.             p105               1.00 
      170 x2.xmxi3|xi17|mm16.             n105               1.00 
      171 x2.xmxi3|xi17|mm17.             n105               1.00 
      172 x2.xmxi3|xi17|mm18.             n105               1.00 
      173 x2.xmxi3|xi17|mm19.             n105               1.00 
      174 x2.xmxi3|xi17|mm20.             n105               1.00 
      175 x2.xmxi3|xi17|mm21.             p105               1.00 
      176 x2.xmxi3|xi17|mm22.             p105               1.00 
      177 x2.xmxi3|xi17|mm23.             p105               1.00 
      178 x2.xmxi3|xi17|mm24.             n105               1.00 
      179 x2.xmxi3|xi17|mm25.             p105               1.00 
      180 x2.xmxi3|xi17|mm28.             n105               1.00 
      181 x2.xmxi3|xi17|mm29.             n105               1.00 
      182 x2.xmxi3|xi17|mm30.             p105               1.00 
      183 x2.xmxi3|xi17|mm31.             p105               1.00 
      184 x2.xmxi3|xi17|mm32.             p105               1.00 
      185 x2.xmxi3|xi17|mm33.             n105               1.00 
      186 x2.xmxi3|xi18|mm0.              n105               1.00 
      187 x2.xmxi3|xi18|mm1.              p105               1.00 
      188 x2.xmxi3|xi18|mm2.              n105               1.00 
      189 x2.xmxi3|xi18|mm3.              p105               1.00 
      190 x2.xmxi3|xi18|mm4.              n105               1.00 
      191 x2.xmxi3|xi18|mm5.              p105               1.00 
      192 x2.xmxi3|xi18|mm6.              n105               1.00 
      193 x2.xmxi3|xi18|mm7.              p105               1.00 
      194 x2.xmxi3|xi19|mm0.              n105               1.00 
      195 x2.xmxi3|xi19|mm1.              p105               1.00 
      196 x2.xmxi3|xi19|mm2.              n105               1.00 
      197 x2.xmxi3|xi19|mm3.              p105               1.00 
      198 x2.xmxi3|xi19|mm4.              n105               1.00 
      199 x2.xmxi3|xi19|mm5.              p105               1.00 
      200 x2.xmxi3|xi19|mm6.              n105               1.00 
      201 x2.xmxi3|xi19|mm7.              p105               1.00 
      202 x2.xmxi3|xi20|mm0.              n105               1.00 
      203 x2.xmxi3|xi20|mm1.              p105               1.00 
      204 x2.xmxi3|xi20|mm2.              n105               1.00 
      205 x2.xmxi3|xi20|mm3.              p105               1.00 
      206 x2.xmxi3|xi20|mm4.              n105               1.00 
      207 x2.xmxi3|xi20|mm5.              p105               1.00 
      208 x2.xmxi3|xi20|mm6.              n105               1.00 
      209 x2.xmxi3|xi20|mm7.              p105               1.00 
      210 x2.xmxi3|xi21|mm0.              n105               1.00 
      211 x2.xmxi3|xi21|mm1.              p105               1.00 
      212 x2.xmxi3|xi21|mm2.              n105               1.00 
      213 x2.xmxi3|xi21|mm3.              p105               1.00 
      214 x2.xmxi3|xi21|mm4.              n105               1.00 
      215 x2.xmxi3|xi21|mm5.              p105               1.00 
      216 x2.xmxi3|xi21|mm6.              n105               1.00 
      217 x2.xmxi3|xi21|mm7.              p105               1.00 
      218 x2.xmxi3|xi22|mm0.              n105               1.00 
      219 x2.xmxi3|xi22|mm1.              p105               1.00 
      220 x2.xmxi3|xi22|mm2.              n105               1.00 
      221 x2.xmxi3|xi22|mm3.              p105               1.00 
      222 x2.xmxi3|xi22|mm4.              n105               1.00 
      223 x2.xmxi3|xi22|mm5.              p105               1.00 
      224 x2.xmxi3|xi22|mm6.              n105               1.00 
      225 x2.xmxi3|xi22|mm7.              p105               1.00 
      226 x2.xmxi3|xi23|mm0.              n105               1.00 
      227 x2.xmxi3|xi23|mm1.              p105               1.00 
      228 x2.xmxi3|xi23|mm2.              n105               1.00 
      229 x2.xmxi3|xi23|mm3.              p105               1.00 
      230 x2.xmxi3|xi23|mm4.              n105               1.00 
      231 x2.xmxi3|xi23|mm5.              p105               1.00 
      232 x2.xmxi3|xi23|mm6.              n105               1.00 
      233 x2.xmxi3|xi23|mm7.              p105               1.00 
      234 x2.xmxi3|xi24|mm0.              n105               1.00 
      235 x2.xmxi3|xi24|mm1.              p105               1.00 
      236 x2.xmxi3|xi24|mm2.              n105               1.00 
      237 x2.xmxi3|xi24|mm3.              p105               1.00 
      238 x2.xmxi3|xi24|mm4.              n105               1.00 
      239 x2.xmxi3|xi24|mm5.              p105               1.00 
      240 x2.xmxi3|xi24|mm6.              n105               1.00 
      241 x2.xmxi3|xi24|mm7.              p105               1.00 
      242 x2.xmxi3|xi25|mm0.              n105               1.00 
      243 x2.xmxi3|xi25|mm1.              p105               1.00 
      244 x2.xmxi3|xi25|mm2.              n105               1.00 
      245 x2.xmxi3|xi25|mm3.              p105               1.00 
      246 x2.xmxi3|xi25|mm4.              n105               1.00 
      247 x2.xmxi3|xi25|mm5.              p105               1.00 
      248 x2.xmxi3|xi25|mm6.              n105               1.00 
      249 x2.xmxi3|xi25|mm7.              p105               1.00 
      250 x2.xmxi3|xi26|mm0.              n105               1.00 
      251 x2.xmxi3|xi26|mm1.              p105               1.00 
      252 x2.xmxi3|xi26|mm2.              n105               1.00 
      253 x2.xmxi3|xi26|mm3.              p105               1.00 
      254 x2.xmxi3|xi26|mm4.              n105               1.00 
      255 x2.xmxi3|xi26|mm5.              p105               1.00 
      256 x2.xmxi3|xi26|mm6.              n105               1.00 
      257 x2.xmxi3|xi26|mm7.              p105               1.00 
      258 x2.xmxi3|xi27|mm0.              n105               1.00 
      259 x2.xmxi3|xi27|mm1.              p105               1.00 
      260 x2.xmxi3|xi27|mm2.              n105               1.00 
      261 x2.xmxi3|xi27|mm3.              p105               1.00 
      262 x2.xmxi3|xi27|mm4.              n105               1.00 
      263 x2.xmxi3|xi27|mm5.              p105               1.00 
      264 x2.xmxi3|xi27|mm6.              n105               1.00 
      265 x2.xmxi3|xi27|mm7.              p105               1.00 
      266 x2.xmxi4|xi0|mm0.               n105               1.00 
      267 x2.xmxi4|xi0|mm1.               p105               1.00 
      268 x2.xmxi4|xi0|mm2.               n105               1.00 
      269 x2.xmxi4|xi0|mm3.               p105               1.00 
      270 x2.xmxi4|xi0|mm4.               n105               1.00 
      271 x2.xmxi4|xi0|mm5.               p105               1.00 
      272 x2.xmxi4|xi0|mm6.               n105               1.00 
      273 x2.xmxi4|xi0|mm7.               p105               1.00 
      274 x2.xmxi4|xi1|mm0.               n105               1.00 
      275 x2.xmxi4|xi1|mm1.               p105               1.00 
      276 x2.xmxi4|xi1|mm2.               n105               1.00 
      277 x2.xmxi4|xi1|mm3.               p105               1.00 
      278 x2.xmxi4|xi1|mm4.               n105               1.00 
      279 x2.xmxi4|xi1|mm5.               p105               1.00 
      280 x2.xmxi4|xi1|mm6.               n105               1.00 
      281 x2.xmxi4|xi1|mm7.               p105               1.00 
      282 x2.xmxi4|xi2|mm0.               n105               1.00 
      283 x2.xmxi4|xi2|mm1.               p105               1.00 
      284 x2.xmxi4|xi2|mm2.               n105               1.00 
      285 x2.xmxi4|xi2|mm3.               p105               1.00 
      286 x2.xmxi4|xi2|mm4.               n105               1.00 
      287 x2.xmxi4|xi2|mm5.               p105               1.00 
      288 x2.xmxi4|xi2|mm6.               n105               1.00 
      289 x2.xmxi4|xi2|mm7.               p105               1.00 
      290 x2.xmxi4|xi3|mm0.               n105               1.00 
      291 x2.xmxi4|xi3|mm1.               p105               1.00 
      292 x2.xmxi4|xi3|mm2.               n105               1.00 
      293 x2.xmxi4|xi3|mm3.               p105               1.00 
      294 x2.xmxi4|xi3|mm4.               n105               1.00 
      295 x2.xmxi4|xi3|mm5.               p105               1.00 
      296 x2.xmxi4|xi3|mm6.               n105               1.00 
      297 x2.xmxi4|xi3|mm7.               p105               1.00 
      298 x2.xmxi4|xi4|mm0.               n105               1.00 
      299 x2.xmxi4|xi4|mm1.               p105               1.00 
      300 x2.xmxi4|xi4|mm2.               n105               1.00 
      301 x2.xmxi4|xi4|mm3.               p105               1.00 
      302 x2.xmxi4|xi4|mm4.               n105               1.00 
      303 x2.xmxi4|xi4|mm5.               p105               1.00 
      304 x2.xmxi4|xi4|mm6.               n105               1.00 
      305 x2.xmxi4|xi4|mm7.               p105               1.00 
      306 x2.xmxi4|xi5|mm0.               n105               1.00 
      307 x2.xmxi4|xi5|mm1.               p105               1.00 
      308 x2.xmxi4|xi5|mm2.               n105               1.00 
      309 x2.xmxi4|xi5|mm3.               p105               1.00 
      310 x2.xmxi4|xi5|mm4.               n105               1.00 
      311 x2.xmxi4|xi5|mm5.               p105               1.00 
      312 x2.xmxi4|xi5|mm6.               n105               1.00 
      313 x2.xmxi4|xi5|mm7.               p105               1.00 
      314 x2.xmxi4|xi6|mm0.               n105               1.00 
      315 x2.xmxi4|xi6|mm1.               p105               1.00 
      316 x2.xmxi4|xi6|mm2.               n105               1.00 
      317 x2.xmxi4|xi6|mm3.               p105               1.00 
      318 x2.xmxi4|xi6|mm4.               n105               1.00 
      319 x2.xmxi4|xi6|mm5.               p105               1.00 
      320 x2.xmxi4|xi6|mm6.               n105               1.00 
      321 x2.xmxi4|xi6|mm7.               p105               1.00 
      322 x2.xmxi4|xi7|mm0.               n105               1.00 
      323 x2.xmxi4|xi7|mm1.               p105               1.00 
      324 x2.xmxi4|xi7|mm2.               n105               1.00 
      325 x2.xmxi4|xi7|mm3.               p105               1.00 
      326 x2.xmxi4|xi7|mm4.               n105               1.00 
      327 x2.xmxi4|xi7|mm5.               p105               1.00 
      328 x2.xmxi4|xi7|mm6.               n105               1.00 
      329 x2.xmxi4|xi7|mm7.               p105               1.00 
      330 x2.xmxi4|xi8|mm1.               p105               1.00 
      331 x2.xmxi4|xi8|mm2.               p105               1.00 
      332 x2.xmxi4|xi8|mm3.               n105               1.00 
      333 x2.xmxi4|xi8|mm4.               n105               1.00 
      334 x2.xmxi4|xi8|mm5.               n105               1.00 
      335 x2.xmxi4|xi8|mm6.               p105               1.00 
      336 x2.xmxi4|xi8|mm9.               p105               1.00 
      337 x2.xmxi4|xi8|mm10.              n105               1.00 
      338 x2.xmxi4|xi8|mm12.              n105               1.00 
      339 x2.xmxi4|xi8|mm13.              p105               1.00 
      340 x2.xmxi4|xi8|mm14.              p105               1.00 
      341 x2.xmxi4|xi8|mm15.              p105               1.00 
      342 x2.xmxi4|xi8|mm16.              n105               1.00 
      343 x2.xmxi4|xi8|mm17.              n105               1.00 
      344 x2.xmxi4|xi8|mm18.              n105               1.00 
      345 x2.xmxi4|xi8|mm19.              n105               1.00 
      346 x2.xmxi4|xi8|mm20.              n105               1.00 
      347 x2.xmxi4|xi8|mm21.              p105               1.00 
      348 x2.xmxi4|xi8|mm22.              p105               1.00 
      349 x2.xmxi4|xi8|mm23.              p105               1.00 
      350 x2.xmxi4|xi8|mm24.              n105               1.00 
      351 x2.xmxi4|xi8|mm25.              p105               1.00 
      352 x2.xmxi4|xi8|mm28.              n105               1.00 
      353 x2.xmxi4|xi8|mm29.              n105               1.00 
      354 x2.xmxi4|xi8|mm30.              p105               1.00 
      355 x2.xmxi4|xi8|mm31.              p105               1.00 
      356 x2.xmxi4|xi8|mm32.              p105               1.00 
      357 x2.xmxi4|xi8|mm33.              n105               1.00 
      358 x2.xmxi4|xi9|mm0.               n105               1.00 
      359 x2.xmxi4|xi9|mm1.               p105               1.00 
      360 x2.xmxi4|xi9|mm2.               n105               1.00 
      361 x2.xmxi4|xi9|mm3.               p105               1.00 
      362 x2.xmxi4|xi9|mm4.               n105               1.00 
      363 x2.xmxi4|xi9|mm5.               p105               1.00 
      364 x2.xmxi4|xi9|mm6.               n105               1.00 
      365 x2.xmxi4|xi9|mm7.               p105               1.00 
      366 x2.xmxi4|xi11|mm0.              n105               1.00 
      367 x2.xmxi4|xi11|mm1.              p105               1.00 
      368 x2.xmxi4|xi11|mm2.              n105               1.00 
      369 x2.xmxi4|xi11|mm3.              p105               1.00 
      370 x2.xmxi4|xi11|mm4.              n105               1.00 
      371 x2.xmxi4|xi11|mm5.              p105               1.00 
      372 x2.xmxi4|xi11|mm6.              n105               1.00 
      373 x2.xmxi4|xi11|mm7.              p105               1.00 
      374 x2.xmxi4|xi12|mm0.              n105               1.00 
      375 x2.xmxi4|xi12|mm1.              p105               1.00 
      376 x2.xmxi4|xi12|mm2.              n105               1.00 
      377 x2.xmxi4|xi12|mm3.              p105               1.00 
      378 x2.xmxi4|xi12|mm4.              n105               1.00 
      379 x2.xmxi4|xi12|mm5.              p105               1.00 
      380 x2.xmxi4|xi12|mm6.              n105               1.00 
      381 x2.xmxi4|xi12|mm7.              p105               1.00 
      382 x2.xmxi4|xi13|mm1.              p105               1.00 
      383 x2.xmxi4|xi13|mm2.              p105               1.00 
      384 x2.xmxi4|xi13|mm3.              n105               1.00 
      385 x2.xmxi4|xi13|mm4.              n105               1.00 
      386 x2.xmxi4|xi13|mm5.              n105               1.00 
      387 x2.xmxi4|xi13|mm6.              p105               1.00 
      388 x2.xmxi4|xi13|mm9.              p105               1.00 
      389 x2.xmxi4|xi13|mm10.             n105               1.00 
      390 x2.xmxi4|xi13|mm12.             n105               1.00 
      391 x2.xmxi4|xi13|mm13.             p105               1.00 
      392 x2.xmxi4|xi13|mm14.             p105               1.00 
      393 x2.xmxi4|xi13|mm15.             p105               1.00 
      394 x2.xmxi4|xi13|mm16.             n105               1.00 
      395 x2.xmxi4|xi13|mm17.             n105               1.00 
      396 x2.xmxi4|xi13|mm18.             n105               1.00 
      397 x2.xmxi4|xi13|mm19.             n105               1.00 
      398 x2.xmxi4|xi13|mm20.             n105               1.00 
      399 x2.xmxi4|xi13|mm21.             p105               1.00 
      400 x2.xmxi4|xi13|mm22.             p105               1.00 
      401 x2.xmxi4|xi13|mm23.             p105               1.00 
      402 x2.xmxi4|xi13|mm24.             n105               1.00 
      403 x2.xmxi4|xi13|mm25.             p105               1.00 
      404 x2.xmxi4|xi13|mm28.             n105               1.00 
      405 x2.xmxi4|xi13|mm29.             n105               1.00 
      406 x2.xmxi4|xi13|mm30.             p105               1.00 
      407 x2.xmxi4|xi13|mm31.             p105               1.00 
      408 x2.xmxi4|xi13|mm32.             p105               1.00 
      409 x2.xmxi4|xi13|mm33.             n105               1.00 
      410 x2.xmxi4|xi14|mm0.              n105               1.00 
      411 x2.xmxi4|xi14|mm1.              p105               1.00 
      412 x2.xmxi4|xi14|mm2.              n105               1.00 
      413 x2.xmxi4|xi14|mm3.              p105               1.00 
      414 x2.xmxi4|xi14|mm4.              n105               1.00 
      415 x2.xmxi4|xi14|mm5.              p105               1.00 
      416 x2.xmxi4|xi14|mm6.              n105               1.00 
      417 x2.xmxi4|xi14|mm7.              p105               1.00 
      418 x2.xmxi4|xi15|mm0.              n105               1.00 
      419 x2.xmxi4|xi15|mm1.              p105               1.00 
      420 x2.xmxi4|xi15|mm2.              n105               1.00 
      421 x2.xmxi4|xi15|mm3.              p105               1.00 
      422 x2.xmxi4|xi15|mm4.              n105               1.00 
      423 x2.xmxi4|xi15|mm5.              p105               1.00 
      424 x2.xmxi4|xi15|mm6.              n105               1.00 
      425 x2.xmxi4|xi15|mm7.              p105               1.00 
      426 x2.xmxi4|xi16|mm1.              p105               1.00 
      427 x2.xmxi4|xi16|mm2.              p105               1.00 
      428 x2.xmxi4|xi16|mm3.              n105               1.00 
      429 x2.xmxi4|xi16|mm4.              n105               1.00 
      430 x2.xmxi4|xi16|mm5.              n105               1.00 
      431 x2.xmxi4|xi16|mm6.              p105               1.00 
      432 x2.xmxi4|xi16|mm9.              p105               1.00 
      433 x2.xmxi4|xi16|mm10.             n105               1.00 
      434 x2.xmxi4|xi16|mm12.             n105               1.00 
      435 x2.xmxi4|xi16|mm13.             p105               1.00 
      436 x2.xmxi4|xi16|mm14.             p105               1.00 
      437 x2.xmxi4|xi16|mm15.             p105               1.00 
      438 x2.xmxi4|xi16|mm16.             n105               1.00 
      439 x2.xmxi4|xi16|mm17.             n105               1.00 
      440 x2.xmxi4|xi16|mm18.             n105               1.00 
      441 x2.xmxi4|xi16|mm19.             n105               1.00 
      442 x2.xmxi4|xi16|mm20.             n105               1.00 
      443 x2.xmxi4|xi16|mm21.             p105               1.00 
      444 x2.xmxi4|xi16|mm22.             p105               1.00 
      445 x2.xmxi4|xi16|mm23.             p105               1.00 
      446 x2.xmxi4|xi16|mm24.             n105               1.00 
      447 x2.xmxi4|xi16|mm25.             p105               1.00 
      448 x2.xmxi4|xi16|mm28.             n105               1.00 
      449 x2.xmxi4|xi16|mm29.             n105               1.00 
      450 x2.xmxi4|xi16|mm30.             p105               1.00 
      451 x2.xmxi4|xi16|mm31.             p105               1.00 
      452 x2.xmxi4|xi16|mm32.             p105               1.00 
      453 x2.xmxi4|xi16|mm33.             n105               1.00 
      454 x2.xmxi4|xi17|mm1.              p105               1.00 
      455 x2.xmxi4|xi17|mm2.              p105               1.00 
      456 x2.xmxi4|xi17|mm3.              n105               1.00 
      457 x2.xmxi4|xi17|mm4.              n105               1.00 
      458 x2.xmxi4|xi17|mm5.              n105               1.00 
      459 x2.xmxi4|xi17|mm6.              p105               1.00 
      460 x2.xmxi4|xi17|mm9.              p105               1.00 
      461 x2.xmxi4|xi17|mm10.             n105               1.00 
      462 x2.xmxi4|xi17|mm12.             n105               1.00 
      463 x2.xmxi4|xi17|mm13.             p105               1.00 
      464 x2.xmxi4|xi17|mm14.             p105               1.00 
      465 x2.xmxi4|xi17|mm15.             p105               1.00 
      466 x2.xmxi4|xi17|mm16.             n105               1.00 
      467 x2.xmxi4|xi17|mm17.             n105               1.00 
      468 x2.xmxi4|xi17|mm18.             n105               1.00 
      469 x2.xmxi4|xi17|mm19.             n105               1.00 
      470 x2.xmxi4|xi17|mm20.             n105               1.00 
      471 x2.xmxi4|xi17|mm21.             p105               1.00 
      472 x2.xmxi4|xi17|mm22.             p105               1.00 
      473 x2.xmxi4|xi17|mm23.             p105               1.00 
      474 x2.xmxi4|xi17|mm24.             n105               1.00 
      475 x2.xmxi4|xi17|mm25.             p105               1.00 
      476 x2.xmxi4|xi17|mm28.             n105               1.00 
      477 x2.xmxi4|xi17|mm29.             n105               1.00 
      478 x2.xmxi4|xi17|mm30.             p105               1.00 
      479 x2.xmxi4|xi17|mm31.             p105               1.00 
      480 x2.xmxi4|xi17|mm32.             p105               1.00 
      481 x2.xmxi4|xi17|mm33.             n105               1.00 
      482 x2.xmxi4|xi18|mm0.              n105               1.00 
      483 x2.xmxi4|xi18|mm1.              p105               1.00 
      484 x2.xmxi4|xi18|mm2.              n105               1.00 
      485 x2.xmxi4|xi18|mm3.              p105               1.00 
      486 x2.xmxi4|xi18|mm4.              n105               1.00 
      487 x2.xmxi4|xi18|mm5.              p105               1.00 
      488 x2.xmxi4|xi18|mm6.              n105               1.00 
      489 x2.xmxi4|xi18|mm7.              p105               1.00 
      490 x2.xmxi4|xi19|mm0.              n105               1.00 
      491 x2.xmxi4|xi19|mm1.              p105               1.00 
      492 x2.xmxi4|xi19|mm2.              n105               1.00 
      493 x2.xmxi4|xi19|mm3.              p105               1.00 
      494 x2.xmxi4|xi19|mm4.              n105               1.00 
      495 x2.xmxi4|xi19|mm5.              p105               1.00 
      496 x2.xmxi4|xi19|mm6.              n105               1.00 
      497 x2.xmxi4|xi19|mm7.              p105               1.00 
      498 x2.xmxi4|xi20|mm0.              n105               1.00 
      499 x2.xmxi4|xi20|mm1.              p105               1.00 
      500 x2.xmxi4|xi20|mm2.              n105               1.00 
      501 x2.xmxi4|xi20|mm3.              p105               1.00 
      502 x2.xmxi4|xi20|mm4.              n105               1.00 
      503 x2.xmxi4|xi20|mm5.              p105               1.00 
      504 x2.xmxi4|xi20|mm6.              n105               1.00 
      505 x2.xmxi4|xi20|mm7.              p105               1.00 
      506 x2.xmxi4|xi24|mm0.              n105               1.00 
      507 x2.xmxi4|xi24|mm1.              p105               1.00 
      508 x2.xmxi4|xi24|mm2.              n105               1.00 
      509 x2.xmxi4|xi24|mm3.              p105               1.00 
      510 x2.xmxi4|xi24|mm4.              n105               1.00 
      511 x2.xmxi4|xi24|mm5.              p105               1.00 
      512 x2.xmxi4|xi24|mm6.              n105               1.00 
      513 x2.xmxi4|xi24|mm7.              p105               1.00 
      514 x2.xmxi4|xi25|mm0.              n105               1.00 
      515 x2.xmxi4|xi25|mm1.              p105               1.00 
      516 x2.xmxi4|xi25|mm2.              n105               1.00 
      517 x2.xmxi4|xi25|mm3.              p105               1.00 
      518 x2.xmxi4|xi25|mm4.              n105               1.00 
      519 x2.xmxi4|xi25|mm5.              p105               1.00 
      520 x2.xmxi4|xi25|mm6.              n105               1.00 
      521 x2.xmxi4|xi25|mm7.              p105               1.00 
      522 x2.xmxi4|xi26|mm0.              n105               1.00 
      523 x2.xmxi4|xi26|mm1.              p105               1.00 
      524 x2.xmxi4|xi26|mm2.              n105               1.00 
      525 x2.xmxi4|xi26|mm3.              p105               1.00 
      526 x2.xmxi4|xi26|mm4.              n105               1.00 
      527 x2.xmxi4|xi26|mm5.              p105               1.00 
      528 x2.xmxi4|xi26|mm6.              n105               1.00 
      529 x2.xmxi4|xi26|mm7.              p105               1.00 
      530 x2.xmxi4|xi27|mm0.              n105               1.00 
      531 x2.xmxi4|xi27|mm1.              p105               1.00 
      532 x2.xmxi4|xi27|mm2.              n105               1.00 
      533 x2.xmxi4|xi27|mm3.              p105               1.00 
      534 x2.xmxi4|xi27|mm4.              n105               1.00 
      535 x2.xmxi4|xi27|mm5.              p105               1.00 
      536 x2.xmxi4|xi27|mm6.              n105               1.00 
      537 x2.xmxi4|xi27|mm7.              p105               1.00 
      538 xinv0.xmm0.                     n105               1.00 
      539 xinv0.xmm1.                     p105               1.00 
      540 xinv1.xmm0.                     n105               1.00 
      541 xinv1.xmm1.                     p105               1.00 
      542 xinv2.xmm0.                     n105               1.00 
      543 xinv2.xmm1.                     p105               1.00 
      544 xinv3.xmm0.                     n105               1.00 
      545 xinv3.xmm1.                     p105               1.00 
      546 xinv4.xmm0.                     n105               1.00 
      547 xinv4.xmm1.                     p105               1.00 
      548 xinv5.xmm0.                     n105               1.00 
      549 xinv5.xmm1.                     p105               1.00 
      550 xinv6.xmm0.                     n105               1.00 
      551 xinv6.xmm1.                     p105               1.00 
      552 xinv7.xmm0.                     n105               1.00 
      553 xinv7.xmm1.                     p105               1.00 
1****** HSPICE -- K-2015.06-2 linux64 (Jun 25 2015) ******                      
 ******  
 .temp 25

 ****** mos   model parameters tnom=  25.000 temp=  25.000 ******
 Model file: /afs/asu.edu/users/a/p/a/aparame2/425_lab/iPDK/hspice/saed32nm.lib
 Model line:         2265
 Model Name: n105  
 BSIM4 Model (Level 54)
    MOBMOD = 0
    BINUNIT = 1
    PARAMCHK = 0
    CAPMOD = 2
    DIOMOD = 1
    RDSMOD = 0
    TRNQSMOD = 0
    ACNQSMOD = 0
    RBODYMOD = 0
    RGATEMOD = 0
    PERMOD = 1
    GEOMOD = 0
    RGEOMOD = 0
    FNOIMOD = 1
    TNOIMOD = 0
    IGCMOD = 1
    IGBMOD = 1
    STIMOD = 1
    VBFWDMOD = 0
    VERSION =    4.5 
    TOXREF = 2.39e-09 
    TOXE = 2.362e-09 
    TOXP = 2.192e-09 
    TOXM = 2.39e-09 
    DTOX =      0 
    EPSROX =    3.9 
    CDSC =      0 
    CDSCB = -0.03563 
    CDSCD =      0 
    CIT =  0.001 
    NFACTOR =      1 
    XJ =  1e-07 
    VSAT = 2.66e+05 
    A0 =    1.4 
    AGS =   0.06 
    A1 =      0 
    A2 =    0.5 
    AT = 0.0008 
    KETA =      0 
    NSUB =  6e+16 
    NDEP = 1.5e+17 
    NSD =  1e+20 
    NGATE =  1e+23 
    GAMMA1 =      0 
    GAMMA2 =      0 
    VBX =      0 
    VBM =     -3 
    XT = 1.55e-07 
    K1 =    0.4 
    KT1 = -0.1551 
    KT1L = 7.2e-10 
    KT2 = -0.03695 
    K2 = -0.05016 
    K3 =  -3.98 
    K3B =    0.2 
    LPE0 =  2e-09 
    LPEB = 1.5e-08 
    DVTP0 = 1.3e-06 
    DVTP1 =    2.5 
    W0 = 1.658e-08 
    DVT0 =  28.16 
    DVT1 = 0.7992 
    DVT2 = 0.07028 
    DVT0W = -0.02048 
    DVT1W = 6.893e+05 
    DVT2W =  0.075 
    DROUT =  1.817 
    DSUB = 0.5135 
    VTH0 = 0.4195 
    EU =   1.67 
    UA = 4.802e-12 
    UA1 = 0.0811 
    UB = 2.661e-18 
    UB1 = -0.001228 
    UC = 1.378e-10 
    UC1 = -5.6e-11 
    U0 =  32.84 
    UTE =  -1.46 
    VOFF = -0.2037 
    VOFFL = -8.217e-10 
    MINV = -0.3614 
    FPROUT =    150 
    PDITS = 0.4942 
    PDITSD = 0.9771 
    PDITSL = 3.563e+05 
    DELTA =   0.01 
    RDSW =  339.9 
    RDSWMIN =      0 
    RDWMIN =    180 
    RSWMIN =    180 
    RDW =    100 
    RSW =    100 
    PRWG =      0 
    PRWB =      0 
    PRT = 0.005951 
    ETA0 = 0.5807 
    ETAB = -0.2873 
    PCLM =  1e-10 
    PDIBLC1 = 0.07778 
    PDIBLC2 = 0.001118 
    PDIBLCB =  -0.62 
    PSCBE1 =  5e+09 
    PSCBE2 =  5e-06 
    PVAG =      0 
    WR =      1 
    DWG =      0 
    DWB =      0 
    XW = 3.653e-09 
    XWREF = 3.653e-09 
    XL = 7.765e-10 
    XLREF = 7.765e-10 
    B0 =      0 
    B1 =      1 
    ALPHA0 =  4e-12 
    ALPHA1 =      0 
    AGIDL = 9.069e-10 
    BGIDL = 1.305e+09 
    CGIDL =  7.202 
    PHIN =   0.15 
    EGIDL = 0.1265 
    AIGC = 0.01103 
    BIGC = 0.001217 
    CIGC = 0.0009984 
    AIGSD = 0.008269 
    BIGSD = 0.000717 
    CIGSD = 0.007319 
    AIGBACC = 0.01301 
    BIGBACC = 0.002586 
    CIGBACC = 0.005625 
    AIGBINV = 0.01131 
    BIGBINV = 0.0012 
    CIGBINV = 0.001479 
    NIGC =      3 
    NIGBINV =      3 
    NIGBACC =  5.665 
    NTOX =      1 
    EIGBINV =    1.1 
    PIGCD =      1 
    POXEDGE =    1.3 
    XRCRG1 =     12 
    TNOIA =    1.5 
    TNOIB =    3.5 
    NTNOI =      1 
    XRCRG2 =      1 
    BETA0 =    2.8 
    IJTHDFWD =    0.1 
    IJTHSFWD =    0.1 
    IJTHDREV =    0.1 
    IJTHSREV =    0.1 
    XJBVD =      1 
    XJBVS =      1 
    BVD =     12 
    BVS =     12 
    VFB =     -1 
    GBMIN =  1e-12 
    RBDB =     50 
    RBPB =     50 
    RBSB =     50 
    RBPS =     50 
    RBPD =     50 
    CGSL = 1.514e-10 
    CGDL = 1.514e-10 
    CKAPPAS =  3.844 
    CKAPPAD =  3.844 
    CF =      0 
    CLC =      0 
    CLE =    0.6 
    DWC =      0 
    DLC = 7.667e-09 
    DLCIG =  5e-09 
    DWJ =      0 
    VFBCV =      0 
    ACDE =    0.4 
    MOIN =     15 
    NOFF =  2.077 
    VOFFCV = -0.1548 
    DMCG =  7e-08 
    DMCI = 3.5e-08 
    DMDG =  6e-08 
    DMCGT =      0 
    XGW =  4e-08 
    XGL = -2e-09 
    RSHG =     11 
    NGCON =      1 
    TCJ = 0.0006762 
    TPB = 0.001244 
    TCJSW = 0.0006257 
    TPBSW = 0.0006601 
    TCJSWG =      0 
    TPBSWG = 0.002441 
    SK0 =      0 
    SK1 =      0 
    SK2 =      0 
    SL =  2e-06 
    SW =  2e-06 
    K =      0 
    LVSAT =  -2400 
    LA0 =   -0.2 
    LAGS =  0.136 
    LNDEP = 1.972e+17 
    LK3 = -0.03844 
    LLPE0 =  3e-09 
    LDVT0 =    1.8 
    LVTH0 = -4.084e-05 
    LU0 =  4.488 
    LUTE = 0.05646 
    LMINV = -0.0075 
    LETAB = 0.004725 
    LAIGC = -1e-05 
    LNOFF =   0.04 
    WVSAT =   2000 
    WDSUB =  0.008 
    WVOFF =  0.006 
    TNOM =  298.1 
    CGSO = 1.003e-10 
    CGDO = 1.003e-10 
    CGBO =  1e-12 
    XPART =      0 
    RSH =     12 
    JSS = 1.897e-07 
    JSWS = 3.693e-14 
    JSWGS = 1.15e-13 
    PBS =  0.831 
    MJS = 0.3945 
    PBSWS = 0.5281 
    MJSWS = 0.3549 
    CJS = 0.001238 
    CJSWS = 8.092e-11 
    NJS =  1.022 
    PBSWGS =  1.503 
    MJSWGS = 0.9212 
    CJSWGS = 2.932e-10 
    XTIS =      3 
    JSD = 1.897e-07 
    JSWD = 3.693e-14 
    JSWGD = 1.15e-13 
    PBD =  0.831 
    MJD = 0.3945 
    PBSWD = 0.9633 
    MJSWD = 0.3549 
    CJD = 0.001238 
    CJSWD = 8.092e-11 
    NJD =  1.022 
    PBSWGD =  1.503 
    MJSWGD = 0.9212 
    CJSWGD = 2.932e-10 
    XTID =      3 
    LMLT =      1 
    WMLT =      1 
    LINT = 3.835e-10 
    LL =      0 
    LLC =      0 
    LLN =      1 
    LW =      0 
    LWC =      0 
    LWN =      1 
    LWL =      0 
    LWLC =      0 
    LMIN =      0 
    LMAX =      1 
    WINT =      0 
    WL =      0 
    WLC =      0 
    WLN =      1 
    WW =      0 
    WWC =      0 
    WWN =      1 
    WWL =      0 
    WWLC =      0 
    WMIN =      0 
    WMAX =      1 
    NOIA = 3.344e+41 
    NOIB = 2.95e+22 
    NOIC = 8.125e+07 
    EM = 4.1e+07 
    EF =   0.95 
    AF =      1 
    KF = 1.5e-27 
    TRS =      0 
    TRD =      0 
    TEMPMOD  =      1 
    LAMBDA   =      0 
    VTL      =  2e+05 m/s
    LC       =  5e-09 
    XN       =      3 
    LLAMBDA  =      0 
    LVTL     =      0 
    LXN      =      0 
    WLAMBDA  =      0 
    WVTL     =      0 
    WXN      =      0 
    PLAMBDA  =      0 
    PVTL     =      0 
    PXN      =      0 
    RNOIA    =  0.577 
    RNOIB    = 0.5164 
    SAREF(SA0) = 4.48e-07 m
    SBREF(SB0) = 4.48e-07 m
    WLOD     =      0 m
    KU0      =      0 1/m
    KVSAT    =      0 
    KVTH0    = 4.5e-10 m
    TKU0     =      0 
    LLODKU0  =      0 
    WLODKU0  =      0 
    LLODVTH  =      0 
    WLODVTH  =      0 
    LKU0     =      0 
    WKU0     =      0 
    PKU0     =      0 
    LKVTH0   =      0 
    WKVTH0   =      0 
    PKVTH0   =      0 
    STK2     =      0 
    LODK2    =      1 
    STETA0   =      0 
    LODETA0  =      1 
    LXRCRG1  =      0 
    WXRCRG1  =      0 
    PXRCRG1  =      0 
    LXRCRG2  =      0 
    WXRCRG2  =      0 
    PXRCRG2  =      0 
     *** UCB's BSIM4.4.0 new diode model is activated. ***
    *** UCB's Diode Model Parameters ***
    JTSS         =      0 
    JTSSWS       =  7e-11 
    JTSSWGS      =  1e-09 
    JTSD         =      0 
    JTSSWD       =  7e-11 
    JTSSWGD      =  1e-09 
    NJTS         =     60 
    NJTSSW       =     60 
    NJTSSWG      =    2.1 
    XTSS         =   0.02 
    XTSSWS       =   0.02 
    XTSSWGS      =   0.02 
    XTSD         =   0.02 
    XTSSWD       =   0.02 
    XTSSWGD      =   0.02 
    TNJTS        =      0 
    TNJTSSW      =      0 
    TNJTSSWG     =      0 
    VFBSDOFF     =      0 
    LVFBSDOFF    =      0 
    WVFBSDOFF    =      0 
    PVFBSDOFF    =      0 
    LINTNOI      =      0 
    VTSS         =     10 
    VTSD         =     10 
    VTSSWS       =     10 
    VTSSWD       =     10 
    VTSSWGS      =    0.9 
    VTSSWGD      =    0.9 
    TTDIOMOD     =      1 
     *** UCB's BSIM4.5.0 new model is activated. ***
    UD         =      0 
    UD1        =      0 
    UP         =   0.36 
    LP         = 3.094e-08 
    TVOFF      = 0.002063 
    TVFBSDOFF  =      0 
    RBPS0      =     50 
    RBPSL      =      0 
    RBPSW      =      0 
    RBPSNF     =      0 
    RBPD0      =     50 
    RBPDL      =      0 
    RBPDW      =      0 
    RBPDNF     =      0 
    RBPBX0     =    100 
    RBPBXL     =      0 
    RBPBXW     =      0 
    RBPBXNF    =      0 
    RBPBY0     =    100 
    RBPBYL     =      0 
    RBPBYW     =      0 
    RBPBYNF    =      0 
    RBSBX0     =    100 
    RBSBY0     =    100 
    RBDBX0     =    100 
    RBDBY0     =    100 
    RBSDBXL    =      0 
    RBSDBXW    =      0 
    RBSDBXNF   =      0 
    RBSDBYL    =      0 
    RBSDBYW    =      0 
    RBSDBYNF   =      0 
    LUD        =      0 
    LUD1       =      0 
    LUP        =      0 
    LLP        =      0 
    LTVOFF     =      0 
    LTVFBSDOFF =      0 
    WUD        =      0 
    WUD1       =      0 
    WUP        =      0 
    WLP        =      0 
    WTVOFF     =      0 
    WTVFBSDOFF =      0 
    PUD        =      0 
    PUD1       =      0 
    PUP        =      0 
    PLP        =      0 
    PTVOFF     =      0 
    PTVFBSDOFF =      0 
    WEB        = 7.5e+05 
    WEC        = -1e+05 
    KVTH0WE    = 9.511e-07 
    K2WE       =      0 
    KU0WE      =      0 
    SCREF      = 2.5e-06 
    WPEMOD     =      1 
    LKVTH0WE   =      0 
    LK2WE      =      0 
    LKU0WE     =      0 
    WKVTH0WE   =      0 
    WK2WE      =      0 
    WKU0WE     =      0 
    PKVTH0WE   =      0 
    PK2WE      =      0 
    PKU0WE     =      0 
 Model file: /afs/asu.edu/users/a/p/a/aparame2/425_lab/iPDK/hspice/saed32nm.lib
 Model line:         2403
 Model Name: p105  
 BSIM4 Model (Level 54)
    MOBMOD = 0
    BINUNIT = 1
    PARAMCHK = 0
    CAPMOD = 2
    DIOMOD = 1
    RDSMOD = 0
    TRNQSMOD = 0
    ACNQSMOD = 0
    RBODYMOD = 0
    RGATEMOD = 0
    PERMOD = 1
    GEOMOD = 0
    RGEOMOD = 0
    FNOIMOD = 1
    TNOIMOD = 0
    IGCMOD = 1
    IGBMOD = 1
    STIMOD = 1
    VBFWDMOD = 0
    VERSION =    4.5 
    TOXREF = 2.62e-09 
    TOXE = 2.592e-09 
    TOXP = 2.266e-09 
    TOXM = 2.62e-09 
    DTOX =      0 
    EPSROX =    3.9 
    CDSC = 0.1605 
    CDSCB =   0.03 
    CDSCD =      0 
    CIT =      0 
    NFACTOR =      1 
    XJ =  1e-07 
    VSAT = 7.58e+04 
    A0 =  4.509 
    AGS = 0.8198 
    A1 =      0 
    A2 =      1 
    AT =      0 
    KETA = 0.05365 
    NSUB =  6e+16 
    NDEP =  1e+17 
    NSD =  1e+20 
    NGATE = 2.452e+20 
    GAMMA1 =      0 
    GAMMA2 =      0 
    VBX =      0 
    VBM =     -3 
    XT = 1.55e-07 
    K1 = 0.4225 
    KT1 = -0.1673 
    KT1L = -5.206e-09 
    KT2 = -0.0214 
    K2 = -0.0358 
    K3 =  -0.15 
    K3B = 0.0348 
    LPE0 =  5e-08 
    LPEB = 3.777e-09 
    DVTP0 =  8e-07 
    DVTP1 =      0 
    W0 =      0 
    DVT0 =   15.2 
    DVT1 =   1.38 
    DVT2 = 0.0676 
    DVT0W = -0.001592 
    DVT1W =  1e+06 
    DVT2W =   0.25 
    DROUT =   0.56 
    DSUB = 0.3276 
    VTH0 = -0.2351 
    EU =      1 
    UA = 1.203e-15 
    UA1 = -0.0008414 
    UB = 1.67e-19 
    UB1 = 0.002181 
    UC = 2.853e-15 
    UC1 = -0.01207 
    U0 =  96.36 
    UTE = -0.9859 
    VOFF = -0.02239 
    VOFFL = -2.144e-09 
    MINV =  0.736 
    FPROUT =  300.8 
    PDITS =  0.676 
    PDITSD = 0.6156 
    PDITSL = 1.543e+06 
    DELTA =   0.01 
    RDSW =  373.5 
    RDSWMIN =      0 
    RDWMIN =      0 
    RSWMIN =      0 
    RDW =    100 
    RSW =    100 
    PRWG =      0 
    PRWB =      0 
    PRT = 0.0017 
    ETA0 =  0.155 
    ETAB = -0.0843 
    PCLM = 0.1352 
    PDIBLC1 =  1e-07 
    PDIBLC2 =  1e-05 
    PDIBLCB =      0 
    PSCBE1 =  5e+09 
    PSCBE2 =  5e-06 
    PVAG =      2 
    WR =      1 
    DWG =      0 
    DWB =      0 
    XW = 6.53e-13 
    XWREF = 6.53e-13 
    XL = 3.764e-11 
    XLREF = 3.764e-11 
    B0 =  2e-08 
    B1 =      0 
    ALPHA0 = 8.656e-12 
    ALPHA1 =      0 
    AGIDL = 4.612e-11 
    BGIDL = 6.495e+08 
    CGIDL =  21.15 
    PHIN =   -0.1 
    EGIDL = 0.2457 
    AIGC = 0.007602 
    BIGC = 0.0013 
    CIGC =   0.05 
    AIGSD = 0.00435 
    BIGSD = 0.0003 
    CIGSD = 0.008847 
    AIGBACC = 0.01242 
    BIGBACC = 0.002439 
    CIGBACC = -1.5e-10 
    AIGBINV = 0.01311 
    BIGBINV = 0.002519 
    CIGBINV = 0.0005126 
    NIGC =      3 
    NIGBINV =      1 
    NIGBACC =  8.977 
    NTOX =      1 
    EIGBINV = 1.726e-06 
    PIGCD =      1 
    POXEDGE =  1.404 
    XRCRG1 =     12 
    TNOIA =    1.5 
    TNOIB =    3.5 
    NTNOI =      1 
    XRCRG2 =      1 
    BETA0 =      6 
    IJTHDFWD =    0.1 
    IJTHSFWD =    0.1 
    IJTHDREV =    0.1 
    IJTHSREV =    0.1 
    XJBVD =      1 
    XJBVS =      1 
    BVD =     12 
    BVS =     12 
    VFB =     -1 
    GBMIN =  1e-12 
    RBDB =     50 
    RBPB =     50 
    RBSB =     50 
    RBPS =     50 
    RBPD =     50 
    CGSL = 6.868e-11 
    CGDL = 6.868e-11 
    CKAPPAS =   0.66 
    CKAPPAD =   0.66 
    CF =      0 
    CLC =      0 
    CLE =    0.6 
    DWC =      0 
    DLC = 8.11e-09 
    DLCIG = 5.462e-09 
    DWJ =      0 
    VFBCV =     -1 
    ACDE =  0.518 
    MOIN =     15 
    NOFF =  1.801 
    VOFFCV = 0.08105 
    DMCG =  7e-08 
    DMCI = 3.5e-08 
    DMDG =  6e-08 
    DMCGT =      0 
    XGW =  4e-08 
    XGL = -2e-09 
    RSHG =     11 
    NGCON =      1 
    TCJ = 0.001028 
    TPB = 0.001529 
    TCJSW = 0.001049 
    TPBSW = 0.0004987 
    TCJSWG = 0.0006756 
    TPBSWG = 0.0003417 
    SK0 =      0 
    SK1 =      0 
    SK2 =      0 
    SL =  2e-06 
    SW =  2e-06 
    K =      0 
    LNFACTOR = -0.007 
    LA0 =   0.22 
    LAGS = 0.3509 
    LNDEP = 7.826e+16 
    LVTH0 = 0.0004582 
    LUTE = 0.01626 
    LMINV = 0.03843 
    LETAB = 0.002324 
    LAIGC = -2e-05 
    LNOFF = 0.05048 
    LVOFFCV = -0.001943 
    WU0 =  3.624 
    PVSAT =    130 
    PETA0 = -0.0002 
    TNOM =  298.1 
    CGSO = 1.556e-10 
    CGDO = 1.556e-10 
    CGBO =      0 
    XPART =      0 
    RSH =      9 
    JSS = 8.942e-07 
    JSWS = 1.348e-13 
    JSWGS = 1.339e-13 
    PBS = 0.7283 
    MJS = 0.3521 
    PBSWS =   0.94 
    MJSWS = 0.1185 
    CJS = 0.001238 
    CJSWS = 6.221e-11 
    NJS =  1.098 
    PBSWGS = 0.7408 
    MJSWGS = 0.5345 
    CJSWGS = 2.882e-10 
    XTIS =      3 
    JSD = 8.942e-07 
    JSWD = 1.348e-13 
    JSWGD = 1.339e-13 
    PBD = 0.7283 
    MJD = 0.3521 
    PBSWD =   0.94 
    MJSWD = 0.1185 
    CJD = 0.001238 
    CJSWD = 6.221e-11 
    NJD =  1.098 
    PBSWGD = 0.7408 
    MJSWGD = 0.5345 
    CJSWGD = 2.882e-10 
    XTID =      3 
    LMLT =      1 
    WMLT =      1 
    LINT = 4.27e-10 
    LL =      0 
    LLC =      0 
    LLN =      1 
    LW =      0 
    LWC =      0 
    LWN =      1 
    LWL =      0 
    LWLC =      0 
    LMIN =      0 
    LMAX =      1 
    WINT =      0 
    WL =      0 
    WLC =      0 
    WLN =      1 
    WW =      0 
    WWC =      0 
    WWN =      1 
    WWL =      0 
    WWLC =      0 
    WMIN =      0 
    WMAX =      1 
    NOIA = 8.203e+41 
    NOIB = 1.947e+22 
    NOIC = 3.282e+09 
    EM = 4.1e+07 
    EF =   1.04 
    AF =      1 
    KF =      0 
    TRS =      0 
    TRD =      0 
    TEMPMOD  =      1 
    LAMBDA   =      0 
    VTL      =  2e+05 m/s
    LC       =  5e-09 
    XN       =      3 
    LLAMBDA  =      0 
    LVTL     =      0 
    LXN      =      0 
    WLAMBDA  =      0 
    WVTL     =      0 
    WXN      =      0 
    PLAMBDA  =      0 
    PVTL     =      0 
    PXN      =      0 
    RNOIA    =  0.577 
    RNOIB    = 0.5164 
    SAREF(SA0) = 4.48e-07 m
    SBREF(SB0) = 4.48e-07 m
    WLOD     =      0 m
    KU0      = -2.75e-09 1/m
    KVSAT    =      0 
    KVTH0    = -1.115e-09 m
    TKU0     =      0 
    LLODKU0  =      0 
    WLODKU0  =      0 
    LLODVTH  =      0 
    WLODVTH  =      0 
    LKU0     =      0 
    WKU0     =      0 
    PKU0     =      0 
    LKVTH0   =      0 
    WKVTH0   =      0 
    PKVTH0   =      0 
    STK2     =      0 
    LODK2    =      1 
    STETA0   =      0 
    LODETA0  =      1 
    LXRCRG1  =      0 
    WXRCRG1  =      0 
    PXRCRG1  =      0 
    LXRCRG2  =      0 
    WXRCRG2  =      0 
    PXRCRG2  =      0 
     *** UCB's BSIM4.4.0 new diode model is activated. ***
    *** UCB's Diode Model Parameters ***
    JTSS         =  0.002 
    JTSSWS       =      0 
    JTSSWGS      = 3.8e-11 
    JTSD         =  0.002 
    JTSSWD       =      0 
    JTSSWGD      = 3.8e-11 
    NJTS         =     20 
    NJTSSW       =     20 
    NJTSSWG      =  1.695 
    XTSS         =   0.02 
    XTSSWS       =   0.02 
    XTSSWGS      = 0.08619 
    XTSD         =   0.02 
    XTSSWD       =   0.02 
    XTSSWGD      = 0.08619 
    TNJTS        =      0 
    TNJTSSW      =      0 
    TNJTSSWG     =   0.32 
    VFBSDOFF     =      0 
    LVFBSDOFF    =      0 
    WVFBSDOFF    =      0 
    PVFBSDOFF    =      0 
    LINTNOI      =      0 
    VTSS         =     10 
    VTSD         =     10 
    VTSSWS       =     10 
    VTSSWD       =     10 
    VTSSWGS      = 0.9376 
    VTSSWGD      = 0.9376 
    TTDIOMOD     =      1 
     *** UCB's BSIM4.5.0 new model is activated. ***
    UD         =      0 
    UD1        =      0 
    UP         =  -0.45 
    LP         =  6e-08 
    TVOFF      = 0.01744 
    TVFBSDOFF  =      0 
    RBPS0      =     50 
    RBPSL      =      0 
    RBPSW      =      0 
    RBPSNF     =      0 
    RBPD0      =     50 
    RBPDL      =      0 
    RBPDW      =      0 
    RBPDNF     =      0 
    RBPBX0     =    100 
    RBPBXL     =      0 
    RBPBXW     =      0 
    RBPBXNF    =      0 
    RBPBY0     =    100 
    RBPBYL     =      0 
    RBPBYW     =      0 
    RBPBYNF    =      0 
    RBSBX0     =    100 
    RBSBY0     =    100 
    RBDBX0     =    100 
    RBDBY0     =    100 
    RBSDBXL    =      0 
    RBSDBXW    =      0 
    RBSDBXNF   =      0 
    RBSDBYL    =      0 
    RBSDBYW    =      0 
    RBSDBYNF   =      0 
    LUD        =      0 
    LUD1       =      0 
    LUP        =      0 
    LLP        =      0 
    LTVOFF     =      0 
    LTVFBSDOFF =      0 
    WUD        =      0 
    WUD1       =      0 
    WUP        =      0 
    WLP        =      0 
    WTVOFF     =      0 
    WTVFBSDOFF =      0 
    PUD        =      0 
    PUD1       =      0 
    PUP        =      0 
    PLP        =      0 
    PTVOFF     =      0 
    PTVFBSDOFF =      0 
    WEB        = 6.7e+05 
    WEC        = -7e+05 
    KVTH0WE    = -1e-06 
    K2WE       =      0 
    KU0WE      =      0 
    SCREF      = 2.5e-06 
    WPEMOD     =      1 
    LKVTH0WE   =      0 
    LK2WE      =      0 
    LKU0WE     =      0 
    WKVTH0WE   =      0 
    WK2WE      =      0 
    WKU0WE     =      0 
    PKVTH0WE   =      0 
    PK2WE      =      0 
    PKU0WE     =      0 
 Model file: /afs/asu.edu/users/a/p/a/aparame2/425_lab/iPDK/hspice/saed32nm.lib
 Model line:         2265
 Model Name: n105  
 BSIM4 Model (Level 54)
    MOBMOD = 0
    BINUNIT = 1
    PARAMCHK = 0
    CAPMOD = 2
    DIOMOD = 1
    RDSMOD = 0
    TRNQSMOD = 0
    ACNQSMOD = 0
    RBODYMOD = 0
    RGATEMOD = 0
    PERMOD = 1
    GEOMOD = 0
    RGEOMOD = 0
    FNOIMOD = 1
    TNOIMOD = 0
    IGCMOD = 1
    IGBMOD = 1
    STIMOD = 1
    VBFWDMOD = 0
    VERSION =    4.5 
    TOXREF = 2.39e-09 
    TOXE = 2.362e-09 
    TOXP = 2.192e-09 
    TOXM = 2.39e-09 
    DTOX =      0 
    EPSROX =    3.9 
    CDSC =      0 
    CDSCB = -0.03563 
    CDSCD =      0 
    CIT =  0.001 
    NFACTOR =      1 
    XJ =  1e-07 
    VSAT = 2.66e+05 
    A0 =    1.4 
    AGS =   0.06 
    A1 =      0 
    A2 =    0.5 
    AT = 0.0008 
    KETA =      0 
    NSUB =  6e+16 
    NDEP = 1.5e+17 
    NSD =  1e+20 
    NGATE =  1e+23 
    GAMMA1 =      0 
    GAMMA2 =      0 
    VBX =      0 
    VBM =     -3 
    XT = 1.55e-07 
    K1 =    0.4 
    KT1 = -0.1551 
    KT1L = 7.2e-10 
    KT2 = -0.03695 
    K2 = -0.05016 
    K3 =  -3.98 
    K3B =    0.2 
    LPE0 =  2e-09 
    LPEB = 1.5e-08 
    DVTP0 = 1.3e-06 
    DVTP1 =    2.5 
    W0 = 1.658e-08 
    DVT0 =  28.16 
    DVT1 = 0.7992 
    DVT2 = 0.07028 
    DVT0W = -0.02048 
    DVT1W = 6.893e+05 
    DVT2W =  0.075 
    DROUT =  1.817 
    DSUB = 0.5135 
    VTH0 = 0.4195 
    EU =   1.67 
    UA = 4.802e-12 
    UA1 = 0.0811 
    UB = 2.661e-18 
    UB1 = -0.001228 
    UC = 1.378e-10 
    UC1 = -5.6e-11 
    U0 =  32.84 
    UTE =  -1.46 
    VOFF = -0.2037 
    VOFFL = -8.217e-10 
    MINV = -0.3614 
    FPROUT =    150 
    PDITS = 0.4942 
    PDITSD = 0.9771 
    PDITSL = 3.563e+05 
    DELTA =   0.01 
    RDSW =  339.9 
    RDSWMIN =      0 
    RDWMIN =    180 
    RSWMIN =    180 
    RDW =    100 
    RSW =    100 
    PRWG =      0 
    PRWB =      0 
    PRT = 0.005951 
    ETA0 = 0.5807 
    ETAB = -0.2873 
    PCLM =  1e-10 
    PDIBLC1 = 0.07778 
    PDIBLC2 = 0.001118 
    PDIBLCB =  -0.62 
    PSCBE1 =  5e+09 
    PSCBE2 =  5e-06 
    PVAG =      0 
    WR =      1 
    DWG =      0 
    DWB =      0 
    XW = 3.653e-09 
    XWREF = 3.653e-09 
    XL = 7.765e-10 
    XLREF = 7.765e-10 
    B0 =      0 
    B1 =      1 
    ALPHA0 =  4e-12 
    ALPHA1 =      0 
    AGIDL = 9.069e-10 
    BGIDL = 1.305e+09 
    CGIDL =  7.202 
    PHIN =   0.15 
    EGIDL = 0.1265 
    AIGC = 0.01103 
    BIGC = 0.001217 
    CIGC = 0.0009984 
    AIGSD = 0.008269 
    BIGSD = 0.000717 
    CIGSD = 0.007319 
    AIGBACC = 0.01301 
    BIGBACC = 0.002586 
    CIGBACC = 0.005625 
    AIGBINV = 0.01131 
    BIGBINV = 0.0012 
    CIGBINV = 0.001479 
    NIGC =      3 
    NIGBINV =      3 
    NIGBACC =  5.665 
    NTOX =      1 
    EIGBINV =    1.1 
    PIGCD =      1 
    POXEDGE =    1.3 
    XRCRG1 =     12 
    TNOIA =    1.5 
    TNOIB =    3.5 
    NTNOI =      1 
    XRCRG2 =      1 
    BETA0 =    2.8 
    IJTHDFWD =    0.1 
    IJTHSFWD =    0.1 
    IJTHDREV =    0.1 
    IJTHSREV =    0.1 
    XJBVD =      1 
    XJBVS =      1 
    BVD =     12 
    BVS =     12 
    VFB =     -1 
    GBMIN =  1e-12 
    RBDB =     50 
    RBPB =     50 
    RBSB =     50 
    RBPS =     50 
    RBPD =     50 
    CGSL = 1.514e-10 
    CGDL = 1.514e-10 
    CKAPPAS =  3.844 
    CKAPPAD =  3.844 
    CF =      0 
    CLC =      0 
    CLE =    0.6 
    DWC =      0 
    DLC = 7.667e-09 
    DLCIG =  5e-09 
    DWJ =      0 
    VFBCV =      0 
    ACDE =    0.4 
    MOIN =     15 
    NOFF =  2.077 
    VOFFCV = -0.1548 
    DMCG =  7e-08 
    DMCI = 3.5e-08 
    DMDG =  6e-08 
    DMCGT =      0 
    XGW =  4e-08 
    XGL = -2e-09 
    RSHG =     11 
    NGCON =      1 
    TCJ = 0.0006762 
    TPB = 0.001244 
    TCJSW = 0.0006257 
    TPBSW = 0.0006601 
    TCJSWG =      0 
    TPBSWG = 0.002441 
    SK0 =      0 
    SK1 =      0 
    SK2 =      0 
    SL =  2e-06 
    SW =  2e-06 
    K =      0 
    LVSAT =  -2400 
    LA0 =   -0.2 
    LAGS =  0.136 
    LNDEP = 1.972e+17 
    LK3 = -0.03844 
    LLPE0 =  3e-09 
    LDVT0 =    1.8 
    LVTH0 = -4.084e-05 
    LU0 =  4.488 
    LUTE = 0.05646 
    LMINV = -0.0075 
    LETAB = 0.004725 
    LAIGC = -1e-05 
    LNOFF =   0.04 
    WVSAT =   2000 
    WDSUB =  0.008 
    WVOFF =  0.006 
    TNOM =  298.1 
    CGSO = 1.003e-10 
    CGDO = 1.003e-10 
    CGBO =  1e-12 
    XPART =      0 
    RSH =     12 
    JSS = 1.897e-07 
    JSWS = 3.693e-14 
    JSWGS = 1.15e-13 
    PBS =  0.831 
    MJS = 0.3945 
    PBSWS = 0.5281 
    MJSWS = 0.3549 
    CJS = 0.001238 
    CJSWS = 8.092e-11 
    NJS =  1.022 
    PBSWGS =  1.503 
    MJSWGS = 0.9212 
    CJSWGS = 2.932e-10 
    XTIS =      3 
    JSD = 1.897e-07 
    JSWD = 3.693e-14 
    JSWGD = 1.15e-13 
    PBD =  0.831 
    MJD = 0.3945 
    PBSWD = 0.9633 
    MJSWD = 0.3549 
    CJD = 0.001238 
    CJSWD = 8.092e-11 
    NJD =  1.022 
    PBSWGD =  1.503 
    MJSWGD = 0.9212 
    CJSWGD = 2.932e-10 
    XTID =      3 
    LMLT =      1 
    WMLT =      1 
    LINT = 3.835e-10 
    LL =      0 
    LLC =      0 
    LLN =      1 
    LW =      0 
    LWC =      0 
    LWN =      1 
    LWL =      0 
    LWLC =      0 
    LMIN =      0 
    LMAX =      1 
    WINT =      0 
    WL =      0 
    WLC =      0 
    WLN =      1 
    WW =      0 
    WWC =      0 
    WWN =      1 
    WWL =      0 
    WWLC =      0 
    WMIN =      0 
    WMAX =      1 
    NOIA = 3.344e+41 
    NOIB = 2.95e+22 
    NOIC = 8.125e+07 
    EM = 4.1e+07 
    EF =   0.95 
    AF =      1 
    KF = 1.5e-27 
    TRS =      0 
    TRD =      0 
    TEMPMOD  =      1 
    LAMBDA   =      0 
    VTL      =  2e+05 m/s
    LC       =  5e-09 
    XN       =      3 
    LLAMBDA  =      0 
    LVTL     =      0 
    LXN      =      0 
    WLAMBDA  =      0 
    WVTL     =      0 
    WXN      =      0 
    PLAMBDA  =      0 
    PVTL     =      0 
    PXN      =      0 
    RNOIA    =  0.577 
    RNOIB    = 0.5164 
    SAREF(SA0) = 4.48e-07 m
    SBREF(SB0) = 4.48e-07 m
    WLOD     =      0 m
    KU0      =      0 1/m
    KVSAT    =      0 
    KVTH0    = 4.5e-10 m
    TKU0     =      0 
    LLODKU0  =      0 
    WLODKU0  =      0 
    LLODVTH  =      0 
    WLODVTH  =      0 
    LKU0     =      0 
    WKU0     =      0 
    PKU0     =      0 
    LKVTH0   =      0 
    WKVTH0   =      0 
    PKVTH0   =      0 
    STK2     =      0 
    LODK2    =      1 
    STETA0   =      0 
    LODETA0  =      1 
    LXRCRG1  =      0 
    WXRCRG1  =      0 
    PXRCRG1  =      0 
    LXRCRG2  =      0 
    WXRCRG2  =      0 
    PXRCRG2  =      0 
     *** UCB's BSIM4.4.0 new diode model is activated. ***
    *** UCB's Diode Model Parameters ***
    JTSS         =      0 
    JTSSWS       =  7e-11 
    JTSSWGS      =  1e-09 
    JTSD         =      0 
    JTSSWD       =  7e-11 
    JTSSWGD      =  1e-09 
    NJTS         =     60 
    NJTSSW       =     60 
    NJTSSWG      =    2.1 
    XTSS         =   0.02 
    XTSSWS       =   0.02 
    XTSSWGS      =   0.02 
    XTSD         =   0.02 
    XTSSWD       =   0.02 
    XTSSWGD      =   0.02 
    TNJTS        =      0 
    TNJTSSW      =      0 
    TNJTSSWG     =      0 
    VFBSDOFF     =      0 
    LVFBSDOFF    =      0 
    WVFBSDOFF    =      0 
    PVFBSDOFF    =      0 
    LINTNOI      =      0 
    VTSS         =     10 
    VTSD         =     10 
    VTSSWS       =     10 
    VTSSWD       =     10 
    VTSSWGS      =    0.9 
    VTSSWGD      =    0.9 
    TTDIOMOD     =      1 
     *** UCB's BSIM4.5.0 new model is activated. ***
    UD         =      0 
    UD1        =      0 
    UP         =   0.36 
    LP         = 3.094e-08 
    TVOFF      = 0.002063 
    TVFBSDOFF  =      0 
    RBPS0      =     50 
    RBPSL      =      0 
    RBPSW      =      0 
    RBPSNF     =      0 
    RBPD0      =     50 
    RBPDL      =      0 
    RBPDW      =      0 
    RBPDNF     =      0 
    RBPBX0     =    100 
    RBPBXL     =      0 
    RBPBXW     =      0 
    RBPBXNF    =      0 
    RBPBY0     =    100 
    RBPBYL     =      0 
    RBPBYW     =      0 
    RBPBYNF    =      0 
    RBSBX0     =    100 
    RBSBY0     =    100 
    RBDBX0     =    100 
    RBDBY0     =    100 
    RBSDBXL    =      0 
    RBSDBXW    =      0 
    RBSDBXNF   =      0 
    RBSDBYL    =      0 
    RBSDBYW    =      0 
    RBSDBYNF   =      0 
    LUD        =      0 
    LUD1       =      0 
    LUP        =      0 
    LLP        =      0 
    LTVOFF     =      0 
    LTVFBSDOFF =      0 
    WUD        =      0 
    WUD1       =      0 
    WUP        =      0 
    WLP        =      0 
    WTVOFF     =      0 
    WTVFBSDOFF =      0 
    PUD        =      0 
    PUD1       =      0 
    PUP        =      0 
    PLP        =      0 
    PTVOFF     =      0 
    PTVFBSDOFF =      0 
    WEB        = 7.5e+05 
    WEC        = -1e+05 
    KVTH0WE    = 9.511e-07 
    K2WE       =      0 
    KU0WE      =      0 
    SCREF      = 2.5e-06 
    WPEMOD     =      1 
    LKVTH0WE   =      0 
    LK2WE      =      0 
    LKU0WE     =      0 
    WKVTH0WE   =      0 
    WK2WE      =      0 
    WKU0WE     =      0 
    PKVTH0WE   =      0 
    PK2WE      =      0 
    PKU0WE     =      0 
 Model file: /afs/asu.edu/users/a/p/a/aparame2/425_lab/iPDK/hspice/saed32nm.lib
 Model line:         2403
 Model Name: p105  
 BSIM4 Model (Level 54)
    MOBMOD = 0
    BINUNIT = 1
    PARAMCHK = 0
    CAPMOD = 2
    DIOMOD = 1
    RDSMOD = 0
    TRNQSMOD = 0
    ACNQSMOD = 0
    RBODYMOD = 0
    RGATEMOD = 0
    PERMOD = 1
    GEOMOD = 0
    RGEOMOD = 0
    FNOIMOD = 1
    TNOIMOD = 0
    IGCMOD = 1
    IGBMOD = 1
    STIMOD = 1
    VBFWDMOD = 0
    VERSION =    4.5 
    TOXREF = 2.62e-09 
    TOXE = 2.592e-09 
    TOXP = 2.266e-09 
    TOXM = 2.62e-09 
    DTOX =      0 
    EPSROX =    3.9 
    CDSC = 0.1605 
    CDSCB =   0.03 
    CDSCD =      0 
    CIT =      0 
    NFACTOR =      1 
    XJ =  1e-07 
    VSAT = 7.58e+04 
    A0 =  4.509 
    AGS = 0.8198 
    A1 =      0 
    A2 =      1 
    AT =      0 
    KETA = 0.05365 
    NSUB =  6e+16 
    NDEP =  1e+17 
    NSD =  1e+20 
    NGATE = 2.452e+20 
    GAMMA1 =      0 
    GAMMA2 =      0 
    VBX =      0 
    VBM =     -3 
    XT = 1.55e-07 
    K1 = 0.4225 
    KT1 = -0.1673 
    KT1L = -5.206e-09 
    KT2 = -0.0214 
    K2 = -0.0358 
    K3 =  -0.15 
    K3B = 0.0348 
    LPE0 =  5e-08 
    LPEB = 3.777e-09 
    DVTP0 =  8e-07 
    DVTP1 =      0 
    W0 =      0 
    DVT0 =   15.2 
    DVT1 =   1.38 
    DVT2 = 0.0676 
    DVT0W = -0.001592 
    DVT1W =  1e+06 
    DVT2W =   0.25 
    DROUT =   0.56 
    DSUB = 0.3276 
    VTH0 = -0.2351 
    EU =      1 
    UA = 1.203e-15 
    UA1 = -0.0008414 
    UB = 1.67e-19 
    UB1 = 0.002181 
    UC = 2.853e-15 
    UC1 = -0.01207 
    U0 =  96.36 
    UTE = -0.9859 
    VOFF = -0.02239 
    VOFFL = -2.144e-09 
    MINV =  0.736 
    FPROUT =  300.8 
    PDITS =  0.676 
    PDITSD = 0.6156 
    PDITSL = 1.543e+06 
    DELTA =   0.01 
    RDSW =  373.5 
    RDSWMIN =      0 
    RDWMIN =      0 
    RSWMIN =      0 
    RDW =    100 
    RSW =    100 
    PRWG =      0 
    PRWB =      0 
    PRT = 0.0017 
    ETA0 =  0.155 
    ETAB = -0.0843 
    PCLM = 0.1352 
    PDIBLC1 =  1e-07 
    PDIBLC2 =  1e-05 
    PDIBLCB =      0 
    PSCBE1 =  5e+09 
    PSCBE2 =  5e-06 
    PVAG =      2 
    WR =      1 
    DWG =      0 
    DWB =      0 
    XW = 6.53e-13 
    XWREF = 6.53e-13 
    XL = 3.764e-11 
    XLREF = 3.764e-11 
    B0 =  2e-08 
    B1 =      0 
    ALPHA0 = 8.656e-12 
    ALPHA1 =      0 
    AGIDL = 4.612e-11 
    BGIDL = 6.495e+08 
    CGIDL =  21.15 
    PHIN =   -0.1 
    EGIDL = 0.2457 
    AIGC = 0.007602 
    BIGC = 0.0013 
    CIGC =   0.05 
    AIGSD = 0.00435 
    BIGSD = 0.0003 
    CIGSD = 0.008847 
    AIGBACC = 0.01242 
    BIGBACC = 0.002439 
    CIGBACC = -1.5e-10 
    AIGBINV = 0.01311 
    BIGBINV = 0.002519 
    CIGBINV = 0.0005126 
    NIGC =      3 
    NIGBINV =      1 
    NIGBACC =  8.977 
    NTOX =      1 
    EIGBINV = 1.726e-06 
    PIGCD =      1 
    POXEDGE =  1.404 
    XRCRG1 =     12 
    TNOIA =    1.5 
    TNOIB =    3.5 
    NTNOI =      1 
    XRCRG2 =      1 
    BETA0 =      6 
    IJTHDFWD =    0.1 
    IJTHSFWD =    0.1 
    IJTHDREV =    0.1 
    IJTHSREV =    0.1 
    XJBVD =      1 
    XJBVS =      1 
    BVD =     12 
    BVS =     12 
    VFB =     -1 
    GBMIN =  1e-12 
    RBDB =     50 
    RBPB =     50 
    RBSB =     50 
    RBPS =     50 
    RBPD =     50 
    CGSL = 6.868e-11 
    CGDL = 6.868e-11 
    CKAPPAS =   0.66 
    CKAPPAD =   0.66 
    CF =      0 
    CLC =      0 
    CLE =    0.6 
    DWC =      0 
    DLC = 8.11e-09 
    DLCIG = 5.462e-09 
    DWJ =      0 
    VFBCV =     -1 
    ACDE =  0.518 
    MOIN =     15 
    NOFF =  1.801 
    VOFFCV = 0.08105 
    DMCG =  7e-08 
    DMCI = 3.5e-08 
    DMDG =  6e-08 
    DMCGT =      0 
    XGW =  4e-08 
    XGL = -2e-09 
    RSHG =     11 
    NGCON =      1 
    TCJ = 0.001028 
    TPB = 0.001529 
    TCJSW = 0.001049 
    TPBSW = 0.0004987 
    TCJSWG = 0.0006756 
    TPBSWG = 0.0003417 
    SK0 =      0 
    SK1 =      0 
    SK2 =      0 
    SL =  2e-06 
    SW =  2e-06 
    K =      0 
    LNFACTOR = -0.007 
    LA0 =   0.22 
    LAGS = 0.3509 
    LNDEP = 7.826e+16 
    LVTH0 = 0.0004582 
    LUTE = 0.01626 
    LMINV = 0.03843 
    LETAB = 0.002324 
    LAIGC = -2e-05 
    LNOFF = 0.05048 
    LVOFFCV = -0.001943 
    WU0 =  3.624 
    PVSAT =    130 
    PETA0 = -0.0002 
    TNOM =  298.1 
    CGSO = 1.556e-10 
    CGDO = 1.556e-10 
    CGBO =      0 
    XPART =      0 
    RSH =      9 
    JSS = 8.942e-07 
    JSWS = 1.348e-13 
    JSWGS = 1.339e-13 
    PBS = 0.7283 
    MJS = 0.3521 
    PBSWS =   0.94 
    MJSWS = 0.1185 
    CJS = 0.001238 
    CJSWS = 6.221e-11 
    NJS =  1.098 
    PBSWGS = 0.7408 
    MJSWGS = 0.5345 
    CJSWGS = 2.882e-10 
    XTIS =      3 
    JSD = 8.942e-07 
    JSWD = 1.348e-13 
    JSWGD = 1.339e-13 
    PBD = 0.7283 
    MJD = 0.3521 
    PBSWD =   0.94 
    MJSWD = 0.1185 
    CJD = 0.001238 
    CJSWD = 6.221e-11 
    NJD =  1.098 
    PBSWGD = 0.7408 
    MJSWGD = 0.5345 
    CJSWGD = 2.882e-10 
    XTID =      3 
    LMLT =      1 
    WMLT =      1 
    LINT = 4.27e-10 
    LL =      0 
    LLC =      0 
    LLN =      1 
    LW =      0 
    LWC =      0 
    LWN =      1 
    LWL =      0 
    LWLC =      0 
    LMIN =      0 
    LMAX =      1 
    WINT =      0 
    WL =      0 
    WLC =      0 
    WLN =      1 
    WW =      0 
    WWC =      0 
    WWN =      1 
    WWL =      0 
    WWLC =      0 
    WMIN =      0 
    WMAX =      1 
    NOIA = 8.203e+41 
    NOIB = 1.947e+22 
    NOIC = 3.282e+09 
    EM = 4.1e+07 
    EF =   1.04 
    AF =      1 
    KF =      0 
    TRS =      0 
    TRD =      0 
    TEMPMOD  =      1 
    LAMBDA   =      0 
    VTL      =  2e+05 m/s
    LC       =  5e-09 
    XN       =      3 
    LLAMBDA  =      0 
    LVTL     =      0 
    LXN      =      0 
    WLAMBDA  =      0 
    WVTL     =      0 
    WXN      =      0 
    PLAMBDA  =      0 
    PVTL     =      0 
    PXN      =      0 
    RNOIA    =  0.577 
    RNOIB    = 0.5164 
    SAREF(SA0) = 4.48e-07 m
    SBREF(SB0) = 4.48e-07 m
    WLOD     =      0 m
    KU0      = -2.75e-09 1/m
    KVSAT    =      0 
    KVTH0    = -1.115e-09 m
    TKU0     =      0 
    LLODKU0  =      0 
    WLODKU0  =      0 
    LLODVTH  =      0 
    WLODVTH  =      0 
    LKU0     =      0 
    WKU0     =      0 
    PKU0     =      0 
    LKVTH0   =      0 
    WKVTH0   =      0 
    PKVTH0   =      0 
    STK2     =      0 
    LODK2    =      1 
    STETA0   =      0 
    LODETA0  =      1 
    LXRCRG1  =      0 
    WXRCRG1  =      0 
    PXRCRG1  =      0 
    LXRCRG2  =      0 
    WXRCRG2  =      0 
    PXRCRG2  =      0 
     *** UCB's BSIM4.4.0 new diode model is activated. ***
    *** UCB's Diode Model Parameters ***
    JTSS         =  0.002 
    JTSSWS       =      0 
    JTSSWGS      = 3.8e-11 
    JTSD         =  0.002 
    JTSSWD       =      0 
    JTSSWGD      = 3.8e-11 
    NJTS         =     20 
    NJTSSW       =     20 
    NJTSSWG      =  1.695 
    XTSS         =   0.02 
    XTSSWS       =   0.02 
    XTSSWGS      = 0.08619 
    XTSD         =   0.02 
    XTSSWD       =   0.02 
    XTSSWGD      = 0.08619 
    TNJTS        =      0 
    TNJTSSW      =      0 
    TNJTSSWG     =   0.32 
    VFBSDOFF     =      0 
    LVFBSDOFF    =      0 
    WVFBSDOFF    =      0 
    PVFBSDOFF    =      0 
    LINTNOI      =      0 
    VTSS         =     10 
    VTSD         =     10 
    VTSSWS       =     10 
    VTSSWD       =     10 
    VTSSWGS      = 0.9376 
    VTSSWGD      = 0.9376 
    TTDIOMOD     =      1 
     *** UCB's BSIM4.5.0 new model is activated. ***
    UD         =      0 
    UD1        =      0 
    UP         =  -0.45 
    LP         =  6e-08 
    TVOFF      = 0.01744 
    TVFBSDOFF  =      0 
    RBPS0      =     50 
    RBPSL      =      0 
    RBPSW      =      0 
    RBPSNF     =      0 
    RBPD0      =     50 
    RBPDL      =      0 
    RBPDW      =      0 
    RBPDNF     =      0 
    RBPBX0     =    100 
    RBPBXL     =      0 
    RBPBXW     =      0 
    RBPBXNF    =      0 
    RBPBY0     =    100 
    RBPBYL     =      0 
    RBPBYW     =      0 
    RBPBYNF    =      0 
    RBSBX0     =    100 
    RBSBY0     =    100 
    RBDBX0     =    100 
    RBDBY0     =    100 
    RBSDBXL    =      0 
    RBSDBXW    =      0 
    RBSDBXNF   =      0 
    RBSDBYL    =      0 
    RBSDBYW    =      0 
    RBSDBYNF   =      0 
    LUD        =      0 
    LUD1       =      0 
    LUP        =      0 
    LLP        =      0 
    LTVOFF     =      0 
    LTVFBSDOFF =      0 
    WUD        =      0 
    WUD1       =      0 
    WUP        =      0 
    WLP        =      0 
    WTVOFF     =      0 
    WTVFBSDOFF =      0 
    PUD        =      0 
    PUD1       =      0 
    PUP        =      0 
    PLP        =      0 
    PTVOFF     =      0 
    PTVFBSDOFF =      0 
    WEB        = 6.7e+05 
    WEC        = -7e+05 
    KVTH0WE    = -1e-06 
    K2WE       =      0 
    KU0WE      =      0 
    SCREF      = 2.5e-06 
    WPEMOD     =      1 
    LKVTH0WE   =      0 
    LK2WE      =      0 
    LKU0WE     =      0 
    WKVTH0WE   =      0 
    WK2WE      =      0 
    WKU0WE     =      0 
    PKVTH0WE   =      0 
    PK2WE      =      0 
    PKU0WE     =      0 
 Model file: /afs/asu.edu/users/a/p/a/aparame2/425_lab/iPDK/hspice/saed32nm.lib
 Model line:         2265
 Model Name: n105  
 BSIM4 Model (Level 54)
    MOBMOD = 0
    BINUNIT = 1
    PARAMCHK = 0
    CAPMOD = 2
    DIOMOD = 1
    RDSMOD = 0
    TRNQSMOD = 0
    ACNQSMOD = 0
    RBODYMOD = 0
    RGATEMOD = 0
    PERMOD = 1
    GEOMOD = 0
    RGEOMOD = 0
    FNOIMOD = 1
    TNOIMOD = 0
    IGCMOD = 1
    IGBMOD = 1
    STIMOD = 1
    VBFWDMOD = 0
    VERSION =    4.5 
    TOXREF = 2.39e-09 
    TOXE = 2.362e-09 
    TOXP = 2.192e-09 
    TOXM = 2.39e-09 
    DTOX =      0 
    EPSROX =    3.9 
    CDSC =      0 
    CDSCB = -0.03563 
    CDSCD =      0 
    CIT =  0.001 
    NFACTOR =      1 
    XJ =  1e-07 
    VSAT = 2.66e+05 
    A0 =    1.4 
    AGS =   0.06 
    A1 =      0 
    A2 =    0.5 
    AT = 0.0008 
    KETA =      0 
    NSUB =  6e+16 
    NDEP = 1.5e+17 
    NSD =  1e+20 
    NGATE =  1e+23 
    GAMMA1 =      0 
    GAMMA2 =      0 
    VBX =      0 
    VBM =     -3 
    XT = 1.55e-07 
    K1 =    0.4 
    KT1 = -0.1551 
    KT1L = 7.2e-10 
    KT2 = -0.03695 
    K2 = -0.05016 
    K3 =  -3.98 
    K3B =    0.2 
    LPE0 =  2e-09 
    LPEB = 1.5e-08 
    DVTP0 = 1.3e-06 
    DVTP1 =    2.5 
    W0 = 1.658e-08 
    DVT0 =  28.16 
    DVT1 = 0.7992 
    DVT2 = 0.07028 
    DVT0W = -0.02048 
    DVT1W = 6.893e+05 
    DVT2W =  0.075 
    DROUT =  1.817 
    DSUB = 0.5135 
    VTH0 = 0.4195 
    EU =   1.67 
    UA = 4.802e-12 
    UA1 = 0.0811 
    UB = 2.661e-18 
    UB1 = -0.001228 
    UC = 1.378e-10 
    UC1 = -5.6e-11 
    U0 =  32.84 
    UTE =  -1.46 
    VOFF = -0.2037 
    VOFFL = -8.217e-10 
    MINV = -0.3614 
    FPROUT =    150 
    PDITS = 0.4942 
    PDITSD = 0.9771 
    PDITSL = 3.563e+05 
    DELTA =   0.01 
    RDSW =  339.9 
    RDSWMIN =      0 
    RDWMIN =    180 
    RSWMIN =    180 
    RDW =    100 
    RSW =    100 
    PRWG =      0 
    PRWB =      0 
    PRT = 0.005951 
    ETA0 = 0.5807 
    ETAB = -0.2873 
    PCLM =  1e-10 
    PDIBLC1 = 0.07778 
    PDIBLC2 = 0.001118 
    PDIBLCB =  -0.62 
    PSCBE1 =  5e+09 
    PSCBE2 =  5e-06 
    PVAG =      0 
    WR =      1 
    DWG =      0 
    DWB =      0 
    XW = 3.653e-09 
    XWREF = 3.653e-09 
    XL = 7.765e-10 
    XLREF = 7.765e-10 
    B0 =      0 
    B1 =      1 
    ALPHA0 =  4e-12 
    ALPHA1 =      0 
    AGIDL = 9.069e-10 
    BGIDL = 1.305e+09 
    CGIDL =  7.202 
    PHIN =   0.15 
    EGIDL = 0.1265 
    AIGC = 0.01103 
    BIGC = 0.001217 
    CIGC = 0.0009984 
    AIGSD = 0.008269 
    BIGSD = 0.000717 
    CIGSD = 0.007319 
    AIGBACC = 0.01301 
    BIGBACC = 0.002586 
    CIGBACC = 0.005625 
    AIGBINV = 0.01131 
    BIGBINV = 0.0012 
    CIGBINV = 0.001479 
    NIGC =      3 
    NIGBINV =      3 
    NIGBACC =  5.665 
    NTOX =      1 
    EIGBINV =    1.1 
    PIGCD =      1 
    POXEDGE =    1.3 
    XRCRG1 =     12 
    TNOIA =    1.5 
    TNOIB =    3.5 
    NTNOI =      1 
    XRCRG2 =      1 
    BETA0 =    2.8 
    IJTHDFWD =    0.1 
    IJTHSFWD =    0.1 
    IJTHDREV =    0.1 
    IJTHSREV =    0.1 
    XJBVD =      1 
    XJBVS =      1 
    BVD =     12 
    BVS =     12 
    VFB =     -1 
    GBMIN =  1e-12 
    RBDB =     50 
    RBPB =     50 
    RBSB =     50 
    RBPS =     50 
    RBPD =     50 
    CGSL = 1.514e-10 
    CGDL = 1.514e-10 
    CKAPPAS =  3.844 
    CKAPPAD =  3.844 
    CF =      0 
    CLC =      0 
    CLE =    0.6 
    DWC =      0 
    DLC = 7.667e-09 
    DLCIG =  5e-09 
    DWJ =      0 
    VFBCV =      0 
    ACDE =    0.4 
    MOIN =     15 
    NOFF =  2.077 
    VOFFCV = -0.1548 
    DMCG =  7e-08 
    DMCI = 3.5e-08 
    DMDG =  6e-08 
    DMCGT =      0 
    XGW =  4e-08 
    XGL = -2e-09 
    RSHG =     11 
    NGCON =      1 
    TCJ = 0.0006762 
    TPB = 0.001244 
    TCJSW = 0.0006257 
    TPBSW = 0.0006601 
    TCJSWG =      0 
    TPBSWG = 0.002441 
    SK0 =      0 
    SK1 =      0 
    SK2 =      0 
    SL =  2e-06 
    SW =  2e-06 
    K =      0 
    LVSAT =  -2400 
    LA0 =   -0.2 
    LAGS =  0.136 
[...]
 +  1:f2062   =   1.0197    1:f2063   =   1.0475    1:f2065   = 860.1926m
 +  1:f2066   =   1.0500    1:f2067   =  87.9394m   1:f2069   = 860.2198m
 +  1:f2070   =   1.0500    1:f2071   =  88.1295m   1:f2073   =   1.0203 
 +  1:f2074   =   2.9933n   1:f2075   =   1.0331    1:f2077   =   1.0204 
 +  1:f2078   =   3.0772n   1:f2079   =   1.0332    1:f2081   =   1.0340 
 +  1:f2082   =  87.9464m   1:f2085   = 875.0405m   1:f2086   =   1.0200 
 +  1:f2087   =   1.0477    1:f2089   =   1.0341    1:f2090   =  87.3809m
 +  1:f2093   = 874.8387m   1:f2094   =   1.0200    1:f2095   =   1.0477 
 +  1:f2097   = 860.2492m   1:f2098   =   1.0500    1:f2099   =  87.9467m
 +  1:f21     =   1.0286    1:f2100   =   1.0477    1:f2101   = 860.1684m
 +  1:f2102   =   1.0500    1:f2103   =  87.3812m   1:f2105   =   1.0384 
 +  1:f2106   =   2.0528n   1:f2107   =   1.0429    1:f2109   =   1.0384 
 +  1:f2110   =   1.2718n   1:f2111   =   1.0429    1:f2114   =   1.0383 
 +  1:f2115   = 860.1933m   1:f2117   =   1.0432    1:f2118   =   1.8533n
 +  1:f2119   =   1.0477    1:f2122   =   1.0383    1:f2123   = 860.2205m
 +  1:f2125   =   1.0433    1:f2126   =   1.8533n   1:f2127   =   1.0477 
 +  1:f2129   =   1.0386    1:f2130   =   2.9915n   1:f2131   =   1.0431 
 +  1:f2133   =   1.0386    1:f2134   =   3.0750n   1:f2135   =   1.0431 
 +  1:f2138   =   1.0385    1:f2139   = 860.2499m   1:f2141   =   1.0435 
 +  1:f2142   =   1.8553n   1:f2143   =   1.0480    1:f2146   =   1.0385 
 +  1:f2147   = 860.1691m   1:f2149   =   1.0435    1:f2150   =   1.8552n
 +  1:f2151   =   1.0480    1:f2153   = 875.0953m   1:f2154   =   1.0500 
 +  1:f2155   = 108.1833m   1:f2157   = 875.4806m   1:f2158   =   1.0500 
 +  1:f2159   = 109.6451m   1:f2162   =   1.0204    1:f2163   = 875.4815m
 +  1:f2165   =   1.0346    1:f2166   =  88.9986m   1:f2167   =   1.0485 
 +  1:f2169   =   1.0337    1:f2170   =   3.8806n   1:f2171   =   1.0207 
 +  1:f2173   =   1.0338    1:f2174   =   3.9747n   1:f2175   =   1.0209 
 +  1:f2178   =   1.0206    1:f2179   = 875.0962m   1:f2181   =   1.0347 
 +  1:f2182   =  87.8112m   1:f2183   =   1.0485    1:f2185   =   1.0346 
 +  1:f2186   =   4.1958n   1:f2187   =   1.0217    1:f2190   =   1.0214 
 +  1:f2191   = 875.4692m   1:f2193   =   1.0356    1:f2194   =  88.1934m
 +  1:f2195   =   1.0494    1:f2196   =   1.0496    1:f2197   = 875.4683m
 +  1:f2198   =   1.0500    1:f2199   = 108.7315m   1:f22     =   3.6034m
 +  1:f2201   = 430.3394m   1:f2202   =   2.9312n   1:f2203   =  52.7820m
 +  1:f2206   =  52.2945m   1:f2207   =   1.0492    1:f2209   = 431.6198m
 +  1:f2210   = 711.0235m   1:f2211   =   1.0493    1:f2213   =   1.0492 
 +  1:f2214   =   1.0500    1:f2215   = 588.1719m   1:f2218   =   1.0386 
 +  1:f2219   = 860.7197m   1:f2221   =   1.0439    1:f2222   =   3.5854m
 +  1:f2223   =   1.0486    1:f2225   = 860.9288m   1:f2226   =   1.0500 
 +  1:f2227   =  88.9989m   1:f2229   = 860.7190m   1:f2230   =   1.0500 
 +  1:f2231   =  87.8115m   1:f2234   =   1.0386    1:f2235   = 860.9295m
 +  1:f2237   =   1.0439    1:f2238   =   4.0545m   1:f2239   =   1.0486 
 +  1:f2241   =   1.0388    1:f2242   =   4.0161n   1:f2243   =   1.0435 
 +  1:f2245   =   1.0388    1:f2246   =   3.9227n   1:f2247   =   1.0435 
 +  1:f2249   =   1.0397    1:f2250   =   4.2377n   1:f2251   =   1.0444 
 +  1:f2253   =   1.0448    1:f2254   =   3.6034m   1:f2257   =   1.0496 
 +  1:f2258   =   1.0395    1:f2259   = 860.9988m   1:f2261   = 860.9981m
 +  1:f2262   =   1.0500    1:f2263   =  88.1937m   1:f2265   =   1.8834m
 +  1:f2266   =   2.9308n   1:f2267   = 222.7057m   1:f2269   = 222.7534m
 +  1:f2270   =   1.0286    1:f2273   =   1.0496    1:f2274   =   1.8653m
 +  1:f2275   =   1.0496    1:f2277   =   1.0496    1:f2278   =   1.0500 
 +  1:f2279   = 711.0242m   1:f2282   = 976.3195m   1:f2283   =   4.0873m
 +  1:f2285   =   1.0244    1:f2286   =  88.1363m   1:f2287   =   1.0483 
 +  1:f2290   =  88.2404m   1:f2291   = 999.8159m   1:f2294   =   2.9559m
 +  1:f2297   = 976.7261m   1:f2298   =   1.0479    1:f23     =   3.5854m
 +  1:f2301   =   1.0488    1:f2302   =  88.1363m   1:f2306   = 976.7762m
 +  1:f2307   =   3.6181m   1:f2309   =   1.0246    1:f2310   =  86.9405m
 +  1:f2311   =   1.0483    1:f2314   =  87.0531m   1:f2315   =   1.0001 
 +  1:f2318   =   2.9619m   1:f2321   = 977.1808m   1:f2322   =   1.0479 
 +  1:f2325   =   1.0488    1:f2326   =  86.9405m   1:f2330   =  57.9062m
 +  1:f2331   =   1.0290    1:f2334   =   1.0317    1:f2338   = 713.0724m
 +  1:f2339   =  58.2909m   1:f2342   =  84.4376m   1:f2343   =   1.0049 
 +  1:f2345   =   1.0272    1:f2346   =  84.3348m   1:f2347   =   1.0490 
 +  1:f2349   =   1.0494    1:f2350   =  84.3348m   1:f2354   = 977.3498m
 +  1:f2355   =   3.6363m   1:f2358   =   1.0489    1:f2362   =   2.2684m
 +  1:f2363   = 977.7565m   1:f2366   =  87.4406m   1:f2367   =   1.0008 
 +  1:f2369   =   1.0254    1:f2370   =  87.3324m   1:f2371   =   1.0492 
 +  1:f2373   =   1.0497    1:f2374   =  87.3324m   1:f2377   =   1.0488 
 +  1:f2378   =  88.2404m   1:f2381   =   1.0488    1:f2382   =   2.9559m
 +  1:f2385   =   1.0488    1:f2386   =  88.1363m   1:f2389   =   1.0485 
 +  1:f2390   =  88.2404m   1:f2393   =   1.0488    1:f2394   =  88.2404m
 +  1:f2395   =   1.0484    1:f2398   =  88.1363m   1:f24     =   4.0545m
 +  1:f2401   =   1.0488    1:f2402   =  87.0531m   1:f2405   =   1.0488 
 +  1:f2406   =   2.9619m   1:f2409   =   1.0488    1:f2410   =  86.9405m
 +  1:f2413   =   1.0485    1:f2414   =  87.0531m   1:f2417   =   1.0488 
 +  1:f2418   =  87.0531m   1:f2419   =   1.0484    1:f2422   =  86.9405m
 +  1:f2426   = 713.0724m   1:f2429   =   1.0497    1:f2430   =  84.4376m
 +  1:f2431   =   1.0494    1:f2434   =  84.4376m   1:f2435   =   1.0408 
 +  1:f2438   =  84.4376m   1:f2439   =   1.0496    1:f2441   =   1.0497 
 +  1:f2442   =  84.3348m   1:f2443   =   1.0493    1:f2446   =  84.3348m
 +  1:f2450   =   2.2684m   1:f2453   =   1.0497    1:f2454   =  87.4406m
 +  1:f2455   =   1.0497    1:f2458   =  87.4406m   1:f2459   =   1.0493 
 +  1:f2462   =  87.4406m   1:f2463   =   1.0497    1:f2465   =   1.0497 
 +  1:f2466   =  87.3324m   1:f2467   =   1.0494    1:f2470   =  87.3324m
 +  1:f2473   =   1.0479    1:f2474   =   2.9559m   1:f2475   =   1.0485 
 +  1:f2477   =   1.0488    1:f2478   =   1.0479    1:f2479   =   2.9742m
 +  1:f2481   =   1.0488    1:f2482   =   1.0479    1:f2483   =   3.4417m
 +  1:f2485   =   1.0480    1:f2486   =   2.9619m   1:f2487   =   1.0485 
 +  1:f2489   = 860.3311m   1:f2490   =   1.0500    1:f2491   =  87.0534m
 +  1:f2493   = 860.5006m   1:f2494   =   1.0500    1:f2495   =  88.2408m
 +  1:f2497   =   1.0319    1:f2498   = 713.0724m   1:f2499   =   1.0493 
 +  1:f25     =   5.6899m   1:f2501   = 860.6152m   1:f2502   =   1.0500 
 +  1:f2503   =  87.4409m   1:f2505   =   1.0498    1:f2506   =   1.0489 
 +  1:f2507   =   2.9810m   1:f2509   =   1.0489    1:f2510   =   2.2684m
 +  1:f2511   =   1.0494    1:f2513   = 860.1882m   1:f2514   =   1.0500 
 +  1:f2515   =  84.4380m   1:f2517   =   1.0498    1:f2518   =   1.0317 
 +  1:f2519   =   2.2922m   1:f2522   =   1.0393    1:f2523   = 860.5014m
 +  1:f2525   =   1.0443    1:f2526   =   1.8623n   1:f2527   =   1.0488 
 +  1:f2530   =   1.0392    1:f2531   = 860.3318m   1:f2533   =   1.0443 
 +  1:f2534   =   1.8622n   1:f2535   =   1.0488    1:f2537   =   1.0394 
 +  1:f2538   =   3.9348n   1:f2539   =   1.0439    1:f2541   =   1.0394 
 +  1:f2542   =   3.8416n   1:f2543   =   1.0440    1:f2545   = 860.3281m
 +  1:f2546   =   1.0500    1:f2547   =  86.9409m   1:f2549   = 860.4988m
 +  1:f2550   =   1.0500    1:f2551   =  88.1367m   1:f2553   =   1.0452 
 +  1:f2554   =   1.8702n   1:f2557   =   1.0497    1:f2558   =   1.0402 
 +  1:f2559   = 860.6159m   1:f2561   =   1.0451    1:f2562   =   1.8698n
 +  1:f2565   =   1.0497    1:f2566   =   1.0400    1:f2567   = 860.1889m
 +  1:f2569   = 860.6156m   1:f2570   =   1.0500    1:f2571   =  87.3328m
 +  1:f2573   =   1.0403    1:f2574   =   4.1562n   1:f2575   =   1.0449 
 +  1:f2577   = 860.1894m   1:f2578   =   1.0500    1:f2579   =  84.3352m
 +  1:f2581   =   1.0401    1:f2582   =   4.1107n   1:f2583   =   1.0448 
 +  1:f2584   =   1.0487    1:f2585   = 860.4995m   1:f2586   =   1.0394 
 +  1:f2589   =   1.0443    1:f2590   =   1.8628n   1:f2591   =   1.0489 
 +  1:f2593   =   1.0394    1:f2594   =   3.8968n   1:f2595   =   1.0440 
 +  1:f2597   =   1.0395    1:f2598   =   3.8035n   1:f2599   =   1.0440 
 +  1:f26     =   4.9394m   1:f2601   = 860.3288m   1:f2602   =   1.0393 
 +  1:f2605   =   1.0443    1:f2606   =   1.8626n   1:f2607   =   1.0489 
 +  1:f2609   = 860.8156m   1:f2610   =   1.0500    1:f2611   =  88.1732m
 +  1:f2613   =   1.0404    1:f2614   =   4.1181n   1:f2615   =   1.0449 
 +  1:f2617   =   1.0453    1:f2618   =   1.8708n   1:f2621   = 860.6163m
 +  1:f2622   =   1.0403    1:f2623   =   1.0498    1:f2625   =   1.0402 
 +  1:f2626   =   4.0960n   1:f2627   =   1.0448    1:f2629   =   1.0452 
 +  1:f2630   =   1.8704n   1:f2633   = 860.1901m   1:f2634   =   1.0401 
 +  1:f2635   =   1.0498    1:f2637   =   1.0499    1:f2638   =   1.0500 
 +  1:f2639   = 713.0731m   1:f2641   =   1.0391    1:f2642   =   3.7510n
 +  1:f2643   =   1.0438    1:f2646   =   1.0389    1:f2647   = 860.8163m
 +  1:f2649   =   1.0442    1:f2650   =   3.4227m   1:f2651   =   1.0489 
 +  1:f2653   =   1.7838m   1:f2654   =   2.8804n   1:f2655   = 209.6632m
 +  1:f2658   =   1.7698m   1:f2659   =   1.0499    1:f2661   = 209.7000m
 +  1:f2662   =   1.0500    1:f2663   =   1.0500    1:f27     =   4.9328m
 +  1:f28     =   4.8970m   1:f29     = 588.1706m   1:f3      =   0.     
 +  1:f30     = 108.7310m   1:f31     = 108.1828m   1:f32     = 109.6447m
 +  1:f33     =  88.8024m   1:f34     =  89.2466m   1:f35     =  89.1560m
 +  1:f36     =  89.0509m   1:f37     =   0.        1:f38     =   1.0500 
 +  1:f4      =   0.        1:f40     =   1.0500    1:f5      =   0.     
 +  1:f553    =   2.1693m   1:f554    =   1.7130n   1:f555    =  89.0505m
 +  1:f558    =   1.0373    1:f559    =   2.1679m   1:f561    = 842.4975m
 +  1:f562    =   4.8970m   1:f563    =   2.1443m   1:f565    =   1.0371 
 +  1:f566    =   1.0500    1:f567    = 842.7165m   1:f569    =   2.2090m
 +  1:f570    =   2.2271n   1:f571    =  89.1556m   1:f574    =   1.0373 
 +  1:f575    =   2.2076m   1:f577    = 842.5044m   1:f578    =   4.9328m
 +  1:f579    =   2.1840m   1:f581    =   1.0371    1:f582    =   1.0500 
 +  1:f583    = 842.7234m   1:f585    =   2.2091m   1:f586    =   3.1658n
 +  1:f587    =  89.2462m   1:f590    =   1.0375    1:f591    =   2.2076m
 +  1:f593    = 842.5491m   1:f594    =   4.9394m   1:f595    =   2.1840m
 +  1:f597    =   1.0373    1:f598    =   1.0500    1:f599    = 842.7682m
 +  1:f6      =   0.        1:f601    =   1.9873m   1:f602    =   3.2490n
 +  1:f603    =  88.8020m   1:f606    =   1.0374    1:f607    =   1.9858m
 +  1:f609    = 841.9053m   1:f610    =   5.6899m   1:f611    =   1.9622m
 +  1:f613    =   1.0371    1:f614    =   1.0500    1:f615    = 842.1273m
 +  1:f617    =   1.0197    1:f618    =   1.0500    1:f619    = 789.5661m
 +  1:f622    =   1.0204    1:f623    =   2.1379m   1:f625    = 788.9868m
 +  1:f626    =  88.9986m   1:f627    =   2.1088m   1:f629    =   2.1396m
 +  1:f630    =   3.8830n   1:f631    = 109.6442m   1:f634    =   1.0206 
 +  1:f635    =   1.7074m   1:f637    = 789.4261m   1:f638    =  87.8112m
 +  1:f639    =   1.6783m   1:f641    =   1.0199    1:f642    =   1.0500 
 +  1:f643    = 790.0016m   1:f645    =   1.7091m   1:f646    =   3.9770n
 +  1:f647    = 108.1823m   1:f649    =   1.7103m   1:f650    =   4.1981n
 +  1:f651    = 108.7306m   1:f654    =   1.0214    1:f655    =   1.7086m
 +  1:f657    = 789.3911m   1:f658    =  88.1934m   1:f659    =   1.6794m
 +  1:f661    =   1.0207    1:f662    =   1.0500    1:f663    = 789.9693m
 +  1:f665    =  45.1521m   1:f666    = 109.3116m   1:f669    =   2.0974m
 +  1:f670    = 957.9887m   1:f671    =   4.8551m   1:f674    =   1.0462 
 +  1:f678    =   3.7232m   1:f679    = 957.5012m   1:f682    = 109.4461m
 +  1:f683    = 163.9124m   1:f685    = 725.7000m   1:f686    = 109.3116m
 +  1:f689    =  45.2840m   1:f690    = 109.1855m   1:f693    =   2.1366m
 +  1:f694    = 958.0626m   1:f695    =   4.8910m   1:f698    =   1.0462 
 +  1:f7      =   0.        1:f702    =   3.7241m   1:f703    = 957.5756m
 +  1:f706    = 109.5045m   1:f707    = 163.9972m   1:f709    = 725.7796m
 +  1:f710    = 109.1855m   1:f713    =  45.2555m   1:f714    = 109.2911m
 +  1:f717    =   2.1367m   1:f718    = 958.1668m   1:f719    =   4.8975m
 +  1:f722    =   1.0464    1:f726    =   3.4847m   1:f727    = 957.6790m
 +  1:f730    = 109.6374m   1:f731    = 163.7522m   1:f733    = 725.8501m
 +  1:f734    = 109.2911m   1:f737    =   1.0384    1:f738    =   1.0500 
 +  1:f739    = 843.3793m   1:f742    =   1.0386    1:f743    =   1.9696m
 +  1:f745    =   1.9459m   1:f746    =   4.0545m   1:f747    = 843.1619m
 +  1:f749    =   1.9711m   1:f750    =   3.9244n   1:f751    =  88.9982m
 +  1:f753    =  55.4441m   1:f754    = 108.4073m   1:f757    =   1.9148m
 +  1:f758    = 937.9443m   1:f759    =   5.6341m   1:f762    =   1.0461 
 +  1:f766    =  88.1729m   1:f767    = 937.3755m   1:f770    = 108.7973m
 +  1:f771    = 223.4257m   1:f773    = 706.9613m   1:f774    = 108.4073m
 +  1:f777    =   1.5259m   1:f778    =   4.0178n   1:f779    =  87.8108m
 +  1:f782    =   1.0386    1:f783    =   1.5245m   1:f785    =   1.5007m
 +  1:f786    =   3.5854m   1:f787    = 843.1278m   1:f789    =   1.0384 
 +  1:f790    =   1.0500    1:f791    = 843.3455m   1:f793    =   1.5261m
 +  1:f794    =   4.2394n   1:f795    =  88.1930m   1:f798    =   3.6034m
 +  1:f799    = 843.3248m   1:f8      =   0.        1:f801    =   1.5009m
 +  1:f802    =   1.0395    1:f803    =   1.5247m   1:f805    =   1.0393 
 +  1:f806    =   1.0500    1:f807    = 843.5427m   1:f810    =   3.7232m
 +  1:f813    =   2.4916m   1:f814    = 109.4461m   1:f815    = 725.1860m
 +  1:f818    = 109.3116m   1:f822    = 109.4461m   1:f823    = 214.0763m
 +  1:f826    = 109.4461m   1:f827    =   2.0667m   1:f829    =   2.0948m
 +  1:f830    = 109.3116m   1:f831    = 124.2568m   1:f833    =   1.0462 
 +  1:f834    =   3.7232m   1:f835    = 124.2835m   1:f838    =   3.7241m
 +  1:f841    =   2.5318m   1:f842    = 109.5045m   1:f843    = 725.2655m
 +  1:f846    = 109.1855m   1:f850    = 109.5045m   1:f851    = 213.9838m
 +  1:f854    = 109.5045m   1:f855    =   2.1011m   1:f857    =   2.1324m
 +  1:f858    = 109.1855m   1:f859    = 124.3101m   1:f861    =   1.0462 
 +  1:f862    =   3.7241m   1:f863    = 124.3369m   1:f866    =   3.4847m
 +  1:f869    =   2.5326m   1:f870    = 109.6374m   1:f871    = 725.3354m
 +  1:f874    = 109.2911m   1:f878    = 109.6374m   1:f879    = 214.0054m
 +  1:f882    = 109.6374m   1:f883    =   2.1011m   1:f885    =   2.1322m
 +  1:f886    = 109.2911m   1:f887    = 124.1156m   1:f889    =   1.0464 
 +  1:f890    =   3.4847m   1:f891    = 124.1424m   1:f894    =  88.1729m
 +  1:f897    =   2.2521m   1:f898    = 108.7973m   1:f899    = 706.2535m
 +  1:f9      =   0.        1:f902    = 108.4073m   1:f906    = 108.7973m
 +  1:f907    = 213.7191m   1:f910    = 108.7973m   1:f911    =   1.8566m
 +  1:f913    =   2.0028m   1:f914    = 108.4073m   1:f915    = 179.1570m
 +  1:f917    =   1.0460    1:f918    =  88.1729m   1:f919    = 179.1971m
 +  1:f922    = 976.3195m   1:f923    =   4.0216m   1:f925    =  48.1982m
 +  1:f926    =  88.1363m   1:f927    =   1.8763m   1:f930    =  88.2404m
 +  1:f931    = 183.3247m   1:f934    =   2.9559m   1:f937    = 975.9119m
 +  1:f938    =   1.0479    1:f941    = 745.4146m   1:f942    =  88.1363m
 +  1:f946    = 976.7762m   1:f947    =   3.5527m   1:f948    =   1.6288m
 +  1:f949    =  47.9382m   1:f950    =  86.9405m   1:f951    =   1.4189m
 +  1:f954    =  87.0531m   1:f955    = 183.9864m   1:f958    =   2.9619m
 +  1:f961    = 976.3707m   1:f962    =   1.0479    1:f965    = 745.9094m
 +  1:f966    =  86.9405m   1:f970    = 977.3498m   1:f971    =   3.5704m
 +  1:f974    =   1.0489    1:f978    =   2.2684m   1:f979    = 976.9421m
 +  1:f982    =  87.4406m   1:f983    = 183.2892m   1:f985    =  47.8170m
 +  1:f986    =  87.3324m   1:f987    =   1.4192m   1:f989    = 746.3237m
 +  1:f990    =  87.3324m   1:f993    =   1.0188    1:f994    =   1.0500 
 +  1:f995    = 789.8625m   1:f997    =   3.6708m   1:f998    =   1.0462 
 +  1:f999    =   2.0642m   2:vcc!    = 320.4831m   3:vcc!    =   4.6974n
 +  4:vcc!    =   4.6760n   5:vcc!    =   5.2304n   6:vcc!    =   7.0937n
 +  7:vcc!    =   6.2518n   8:vcc!    =   6.2443n   9:vcc!    =   6.2036n

 ******
 .temp 25

 ****** transient analysis tnom=  25.000 temp=  25.000 ******
 pow= 572.82214u  from= 456.00000p     to=   1.36800n
 current=-482.70257f  from= 456.00000p     to=   1.36800n
 s_0_0= -19.42364m
 s_0_1=   1.06352 
 s_0_2=   1.06007 
 s_0_3=   1.06179 
 s_0_4=   1.05945 
 s_0_5=   1.05896 
 s_0_6=   1.06006 
 s_0_7=   1.06007 
 s_1_0=   1.06569 
 s_1_1=   1.06637 
 s_1_2=   1.06252 
 s_1_3= -10.86124m
 s_1_4=  -4.77399m
 s_1_5=   1.05784 
 s_1_6=   1.05855 
 s_1_7=   1.05854 
 s_2_0= -19.15709m
 s_2_1=  -7.86123m
 s_2_2=  -8.26077m
 s_2_3=   1.06073 
 s_2_4=   1.05771 
 s_2_5=  -7.48241m
 s_2_6=  95.39449m
 s_2_7=   1.05861 
 s_3_0=   1.06529 
 s_3_1= -13.35950m
 s_3_2= -13.44756m
 s_3_3= -10.70054m
 s_3_4= -10.10945m
 s_3_5=  -9.10186m
 s_3_6=  -4.39499m
 s_3_7=   1.05563 
 s_4_0= -19.57025m
 s_4_1=   1.06352 
 s_4_2=   1.06000 
 s_4_3=   1.06193 
 s_4_4=   1.05938 
 s_4_5=   1.05908 
 s_4_6=   1.05884 
 s_4_7=  -9.45288m
 s_5_0=   1.06570 
 s_5_1=   1.06638 
 s_5_2=   1.06277 
 s_5_3= -10.30131m
 s_5_4=  -4.21018m
 s_5_5=   1.05835 
 s_5_6=   1.05927 
 s_5_7=  -5.47902m

          ***** job concluded
1****** HSPICE -- K-2015.06-2 linux64 (Jun 25 2015) ******                      
 ******  
 .temp 25

 ****** job statistics summary tnom=  25.000 temp=  25.000 ******
  
  
 ******  Machine Information  ******
 CPU:
 model name	: Intel(R) Xeon(R) CPU E3-1246 v3 @ 3.50GHz
 cpu MHz	: 800.000
  
 OS:
 Linux version 2.6.32-642.3.1.el6.x86_64 (mockbuild@x86-029.build.eng.bos.redhat.com) (gcc version 4.4.7 20120313 (Red Hat 4.4.7-17) (GCC) ) #1 SMP Sun Jun 26 18:16:44 EDT 2016


  ******  HSPICE Threads Information  ******

  Command Line Threads Count :     1
  Available CPU Count        :     8
  Actual Threads Count       :     1


  ****** Statistics of Ignored Elements ******
  Capacitors      :       3
  Voltage Sources :       1

  ******  Circuit Statistics  ******
  # nodes       =    7687 # elements   =   13039
  # resistors   =    8989 # capacitors =    3486 # inductors   =       0
  # mutual_inds =       0 # vccs       =       0 # vcvs        =       0
  # cccs        =       0 # ccvs       =       0 # volt_srcs   =      20
  # curr_srcs   =       0 # diodes     =       0 # bjts        =       0
  # jfets       =       0 # mosfets    =     544 # U elements  =       0
  # T elements  =       0 # W elements =       0 # B elements  =       0
  # S elements  =       0 # P elements =       0 # va device   =       0
  # vector_srcs =       0 # N elements =       0


  ******  Runtime Statistics (seconds)  ******

  analysis           time    # points   tot. iter  conv.iter
  op point           0.38           1         146
  transient          2.65         685        1094         383 rev=        12
  readin             0.28
  errchk             0.37
  setup              0.10
  output             0.00


           peak memory used        230.96 megabytes
           total cpu time            3.80 seconds
           total elapsed time        4.20 seconds
           job started at     17:52:17 11/23/2016
           job ended   at     17:52:21 11/23/2016


 lic: Release hspice token(s) 
 lic: total license checkout elapse time:        0.09(s)
