$DATA1 SOURCE='HSPICE' VERSION='K-2015.06-2 linux64'
.TITLE '.temp 25'
 t_phl            t_plh            temper           alter#          
    failed           failed          25.0000        1               
