$DATA1 SOURCE='HSPICE' VERSION='K-2015.06-2 linux64'
.TITLE '.temp 25'
 wp               t_rise           t_fall           t_phl           
                  t_plh            temper           alter#          
  4.000e-07        1.047e-11        1.289e-11        1.736e-12      
                   3.608e-12         25.0000        1               
  5.000e-07        1.215e-11        1.029e-11        3.714e-12      
                   1.987e-12         25.0000        1               
  6.000e-07        1.171e-11        1.063e-11        4.133e-12      
                   1.484e-12         25.0000        1               
  7.000e-07        1.248e-11        1.215e-11        4.621e-12      
                   2.233e-12         25.0000        1               
  8.000e-07        9.725e-12        1.178e-11        4.978e-12      
                   3.246e-12         25.0000        1               
  9.000e-07        1.265e-11        7.956e-12        3.407e-12      
                   2.160e-12         25.0000        1               
  1.000e-06        7.771e-12        1.383e-11        2.149e-12      
                   3.386e-12         25.0000        1               
  1.100e-06        7.562e-12        1.117e-11        5.619e-12      
                   3.304e-12         25.0000        1               
  1.200e-06        1.258e-11        1.433e-11        2.287e-12      
                   9.039e-13         25.0000        1               
